
This summary file was generated by HydroDyn  on 09-Jun-2023 at 11:01:11.

WAMIT Model - Body    1
------------------
  Displaced volume (m^3)                 :     2.920509E+04
  X-offset of the center of buoyancy (m) :     0.000000E+00
  Y-offset of the center of buoyancy (m) :     0.000000E+00


  Buoyancy loads from members modelled with WAMIT, summed about ( 0.0, 0.0, 0.0 )
                                BuoyFxi               BuoyFyi               BuoyFzi               BuoyMxi               BuoyMyi               BuoyMzi 
                                  (N)                   (N)                   (N)                  (N-m)                 (N-m)                 (N-m)  
  External:                 0.000000E+00          0.000000E+00          2.935642E+08          0.000000E+00          0.000000E+00          0.000000E+00



Strip-Theory Volume Calculations(m^3)
-------------------------------------
  Structure Volume     :    0.00000E+00
  Submerged Volume     :    0.00000E+00
  Marine Growth Volume :    0.00000E+00
  Ballasted Volume     :    0.00000E+00
              NOTE: Structure, Submerged and Marine Growth volumes are based on members not modelled with WAMIT
                      Ballasted volume is computed from all members which are marked as filled in the HydroDyn input file, regardless of PropPot flag



Total Buoyancy loads summed about ( 0.0, 0.0, 0.0 )
---------------------------------------------------
                                BuoyFxi               BuoyFyi               BuoyFzi               BuoyMxi               BuoyMyi               BuoyMzi 
                                  (N)                   (N)                   (N)                  (N-m)                 (N-m)                 (N-m)  
 External:                  0.000000E+00          0.000000E+00          0.000000E+00          0.000000E+00          0.000000E+00          0.000000E+00
 Internal:                  0.000000E+00          0.000000E+00          0.000000E+00          0.000000E+00          0.000000E+00          0.000000E+00
 Total   :                  0.000000E+00          0.000000E+00          0.000000E+00          0.000000E+00          0.000000E+00          0.000000E+00
              NOTE: External buoyancy is based on members not modelled with WAMIT
                      Internal buoyancy is computed from all members which are marked as filled in the HydroDyn input file, regardless of PropPot flag
                    Total buoyancy does not include WAMIT-modelled buoyancy contribution



Weight loads about ( 0.0, 0.0, 0.0 )
------------------------------------
                                 MGFxi                 MGFyi                 MGFzi                 MGMxi                 MGMyi                 MGMzi  
                                  (N)                   (N)                   (N)                  (N-m)                 (N-m)                 (N-m)  
 Marine Growth:             0.000000E+00          0.000000E+00          0.000000E+00          0.000000E+00          0.000000E+00          0.000000E+00



Nodes (first [   9 ] are joints, remainder are internal nodes)


   i      MbrIndx      Nxi         Nyi         Nzi           R          t          tMG        MGDens     PropPot    FilledFlag  FilledMass      Cd          Ca          Cp         AxCd        AxCa        AxCp        JAxCd       JAxCa       JAxCp  
  (-)       (-)        (m)         (m)         (m)          (m)        (m)         (m)       (kg/m^3)      (-)         (-)        (kg)          (-)         (-)         (-)         (-)         (-)         (-)         (-)         (-)         (-)   
     1      -          22.0000      0.0000     10.0000      -           -        0.000E+00   0.000E+00      -           -           -           -           -           -           -           -           -        0.000E+00   0.000E+00   0.000E+00
     2      -          22.0000      0.0000    -53.9640      -           -        0.000E+00   0.000E+00      -           -           -           -           -           -           -           -           -        0.000E+00   0.000E+00   0.000E+00
     3      -          22.0000      0.0000    -54.4640      -           -        0.000E+00   0.000E+00      -           -           -           -           -           -           -           -           -        1.762E+01   0.000E+00   0.000E+00
     4      -         -11.0000     19.0526     10.0000      -           -        0.000E+00   0.000E+00      -           -           -           -           -           -           -           -           -        0.000E+00   0.000E+00   0.000E+00
     5      -         -11.0000     19.0526    -53.9640      -           -        0.000E+00   0.000E+00      -           -           -           -           -           -           -           -           -        0.000E+00   0.000E+00   0.000E+00
     6      -         -11.0000     19.0526    -54.4640      -           -        0.000E+00   0.000E+00      -           -           -           -           -           -           -           -           -        1.762E+01   0.000E+00   0.000E+00
     7      -         -11.0000    -19.0526     10.0000      -           -        0.000E+00   0.000E+00      -           -           -           -           -           -           -           -           -        0.000E+00   0.000E+00   0.000E+00
     8      -         -11.0000    -19.0526    -53.9640      -           -        0.000E+00   0.000E+00      -           -           -           -           -           -           -           -           -        0.000E+00   0.000E+00   0.000E+00
     9      -         -11.0000    -19.0526    -54.4640      -           -        0.000E+00   0.000E+00      -           -           -           -           -           -           -           -           -        1.762E+01   0.000E+00   0.000E+00
    10           1     22.0000      0.0000      9.0006   7.500E+00   4.000E-01   0.000E+00   0.000E+00           T           F   0.000E+00   4.000E-01   0.000E+00   0.000E+00   0.000E+00   0.000E+00   0.000E+00         -           -           -  
    11           1     22.0000      0.0000      8.0011   7.500E+00   4.000E-01   0.000E+00   0.000E+00           T           F   0.000E+00   4.000E-01   0.000E+00   0.000E+00   0.000E+00   0.000E+00   0.000E+00         -           -           -  
    12           1     22.0000      0.0000      7.0017   7.500E+00   4.000E-01   0.000E+00   0.000E+00           T           F   0.000E+00   4.000E-01   0.000E+00   0.000E+00   0.000E+00   0.000E+00   0.000E+00         -           -           -  
    13           1     22.0000      0.0000      6.0022   7.500E+00   4.000E-01   0.000E+00   0.000E+00           T           F   0.000E+00   4.000E-01   0.000E+00   0.000E+00   0.000E+00   0.000E+00   0.000E+00         -           -           -  
    14           1     22.0000      0.0000      5.0028   7.500E+00   4.000E-01   0.000E+00   0.000E+00           T           F   0.000E+00   4.000E-01   0.000E+00   0.000E+00   0.000E+00   0.000E+00   0.000E+00         -           -           -  
    15           1     22.0000      0.0000      4.0034   7.500E+00   4.000E-01   0.000E+00   0.000E+00           T           F   0.000E+00   4.000E-01   0.000E+00   0.000E+00   0.000E+00   0.000E+00   0.000E+00         -           -           -  
    16           1     22.0000      0.0000      3.0039   7.500E+00   4.000E-01   0.000E+00   0.000E+00           T           F   0.000E+00   4.000E-01   0.000E+00   0.000E+00   0.000E+00   0.000E+00   0.000E+00         -           -           -  
    17           1     22.0000      0.0000      2.0045   7.500E+00   4.000E-01   0.000E+00   0.000E+00           T           F   0.000E+00   4.000E-01   0.000E+00   0.000E+00   0.000E+00   0.000E+00   0.000E+00         -           -           -  
    18           1     22.0000      0.0000      1.0051   7.500E+00   4.000E-01   0.000E+00   0.000E+00           T           F   0.000E+00   4.000E-01   0.000E+00   0.000E+00   0.000E+00   0.000E+00   0.000E+00         -           -           -  
    19           1     22.0000      0.0000      0.0056   7.500E+00   4.000E-01   0.000E+00   0.000E+00           T           F   0.000E+00   4.000E-01   0.000E+00   0.000E+00   0.000E+00   0.000E+00   0.000E+00         -           -           -  
    20           1     22.0000      0.0000     -0.9938   7.500E+00   4.000E-01   0.000E+00   0.000E+00           T           F   0.000E+00   4.000E-01   0.000E+00   0.000E+00   0.000E+00   0.000E+00   0.000E+00         -           -           -  
    21           1     22.0000      0.0000     -1.9932   7.500E+00   4.000E-01   0.000E+00   0.000E+00           T           F   0.000E+00   4.000E-01   0.000E+00   0.000E+00   0.000E+00   0.000E+00   0.000E+00         -           -           -  
    22           1     22.0000      0.0000     -2.9927   7.500E+00   4.000E-01   0.000E+00   0.000E+00           T           F   0.000E+00   4.000E-01   0.000E+00   0.000E+00   0.000E+00   0.000E+00   0.000E+00         -           -           -  
    23           1     22.0000      0.0000     -3.9921   7.500E+00   4.000E-01   0.000E+00   0.000E+00           T           F   0.000E+00   4.000E-01   0.000E+00   0.000E+00   0.000E+00   0.000E+00   0.000E+00         -           -           -  
    24           1     22.0000      0.0000     -4.9916   7.500E+00   4.000E-01   0.000E+00   0.000E+00           T           F   0.000E+00   4.000E-01   0.000E+00   0.000E+00   0.000E+00   0.000E+00   0.000E+00         -           -           -  
    25           1     22.0000      0.0000     -5.9910   7.500E+00   4.000E-01   0.000E+00   0.000E+00           T           F   0.000E+00   4.000E-01   0.000E+00   0.000E+00   0.000E+00   0.000E+00   0.000E+00         -           -           -  
    26           1     22.0000      0.0000     -6.9904   7.500E+00   4.000E-01   0.000E+00   0.000E+00           T           F   0.000E+00   4.000E-01   0.000E+00   0.000E+00   0.000E+00   0.000E+00   0.000E+00         -           -           -  
    27           1     22.0000      0.0000     -7.9899   7.500E+00   4.000E-01   0.000E+00   0.000E+00           T           F   0.000E+00   4.000E-01   0.000E+00   0.000E+00   0.000E+00   0.000E+00   0.000E+00         -           -           -  
    28           1     22.0000      0.0000     -8.9893   7.500E+00   4.000E-01   0.000E+00   0.000E+00           T           F   0.000E+00   4.000E-01   0.000E+00   0.000E+00   0.000E+00   0.000E+00   0.000E+00         -           -           -  
    29           1     22.0000      0.0000     -9.9888   7.500E+00   4.000E-01   0.000E+00   0.000E+00           T           F   0.000E+00   4.000E-01   0.000E+00   0.000E+00   0.000E+00   0.000E+00   0.000E+00         -           -           -  
    30           1     22.0000      0.0000    -10.9882   7.500E+00   4.000E-01   0.000E+00   0.000E+00           T           F   0.000E+00   4.000E-01   0.000E+00   0.000E+00   0.000E+00   0.000E+00   0.000E+00         -           -           -  
    31           1     22.0000      0.0000    -11.9876   7.500E+00   4.000E-01   0.000E+00   0.000E+00           T           F   0.000E+00   4.000E-01   0.000E+00   0.000E+00   0.000E+00   0.000E+00   0.000E+00         -           -           -  
    32           1     22.0000      0.0000    -12.9871   7.500E+00   4.000E-01   0.000E+00   0.000E+00           T           F   0.000E+00   4.000E-01   0.000E+00   0.000E+00   0.000E+00   0.000E+00   0.000E+00         -           -           -  
    33           1     22.0000      0.0000    -13.9865   7.500E+00   4.000E-01   0.000E+00   0.000E+00           T           F   0.000E+00   4.000E-01   0.000E+00   0.000E+00   0.000E+00   0.000E+00   0.000E+00         -           -           -  
    34           1     22.0000      0.0000    -14.9859   7.500E+00   4.000E-01   0.000E+00   0.000E+00           T           F   0.000E+00   4.000E-01   0.000E+00   0.000E+00   0.000E+00   0.000E+00   0.000E+00         -           -           -  
    35           1     22.0000      0.0000    -15.9854   7.500E+00   4.000E-01   0.000E+00   0.000E+00           T           F   0.000E+00   4.000E-01   0.000E+00   0.000E+00   0.000E+00   0.000E+00   0.000E+00         -           -           -  
    36           1     22.0000      0.0000    -16.9848   7.500E+00   4.000E-01   0.000E+00   0.000E+00           T           F   0.000E+00   4.000E-01   0.000E+00   0.000E+00   0.000E+00   0.000E+00   0.000E+00         -           -           -  
    37           1     22.0000      0.0000    -17.9843   7.500E+00   4.000E-01   0.000E+00   0.000E+00           T           F   0.000E+00   4.000E-01   0.000E+00   0.000E+00   0.000E+00   0.000E+00   0.000E+00         -           -           -  
    38           1     22.0000      0.0000    -18.9837   7.500E+00   4.000E-01   0.000E+00   0.000E+00           T           F   0.000E+00   4.000E-01   0.000E+00   0.000E+00   0.000E+00   0.000E+00   0.000E+00         -           -           -  
    39           1     22.0000      0.0000    -19.9831   7.500E+00   4.000E-01   0.000E+00   0.000E+00           T           F   0.000E+00   4.000E-01   0.000E+00   0.000E+00   0.000E+00   0.000E+00   0.000E+00         -           -           -  
    40           1     22.0000      0.0000    -20.9826   7.500E+00   4.000E-01   0.000E+00   0.000E+00           T           F   0.000E+00   4.000E-01   0.000E+00   0.000E+00   0.000E+00   0.000E+00   0.000E+00         -           -           -  
    41           1     22.0000      0.0000    -21.9820   7.500E+00   4.000E-01   0.000E+00   0.000E+00           T           F   0.000E+00   4.000E-01   0.000E+00   0.000E+00   0.000E+00   0.000E+00   0.000E+00         -           -           -  
    42           1     22.0000      0.0000    -22.9814   7.500E+00   4.000E-01   0.000E+00   0.000E+00           T           F   0.000E+00   4.000E-01   0.000E+00   0.000E+00   0.000E+00   0.000E+00   0.000E+00         -           -           -  
    43           1     22.0000      0.0000    -23.9809   7.500E+00   4.000E-01   0.000E+00   0.000E+00           T           F   0.000E+00   4.000E-01   0.000E+00   0.000E+00   0.000E+00   0.000E+00   0.000E+00         -           -           -  
    44           1     22.0000      0.0000    -24.9803   7.500E+00   4.000E-01   0.000E+00   0.000E+00           T           F   0.000E+00   4.000E-01   0.000E+00   0.000E+00   0.000E+00   0.000E+00   0.000E+00         -           -           -  
    45           1     22.0000      0.0000    -25.9797   7.500E+00   4.000E-01   0.000E+00   0.000E+00           T           F   0.000E+00   4.000E-01   0.000E+00   0.000E+00   0.000E+00   0.000E+00   0.000E+00         -           -           -  
    46           1     22.0000      0.0000    -26.9792   7.500E+00   4.000E-01   0.000E+00   0.000E+00           T           F   0.000E+00   4.000E-01   0.000E+00   0.000E+00   0.000E+00   0.000E+00   0.000E+00         -           -           -  
    47           1     22.0000      0.0000    -27.9786   7.500E+00   4.000E-01   0.000E+00   0.000E+00           T           F   0.000E+00   4.000E-01   0.000E+00   0.000E+00   0.000E+00   0.000E+00   0.000E+00         -           -           -  
    48           1     22.0000      0.0000    -28.9781   7.500E+00   4.000E-01   0.000E+00   0.000E+00           T           F   0.000E+00   4.000E-01   0.000E+00   0.000E+00   0.000E+00   0.000E+00   0.000E+00         -           -           -  
    49           1     22.0000      0.0000    -29.9775   7.500E+00   4.000E-01   0.000E+00   0.000E+00           T           F   0.000E+00   4.000E-01   0.000E+00   0.000E+00   0.000E+00   0.000E+00   0.000E+00         -           -           -  
    50           1     22.0000      0.0000    -30.9769   7.500E+00   4.000E-01   0.000E+00   0.000E+00           T           F   0.000E+00   4.000E-01   0.000E+00   0.000E+00   0.000E+00   0.000E+00   0.000E+00         -           -           -  
    51           1     22.0000      0.0000    -31.9764   7.500E+00   4.000E-01   0.000E+00   0.000E+00           T           F   0.000E+00   4.000E-01   0.000E+00   0.000E+00   0.000E+00   0.000E+00   0.000E+00         -           -           -  
    52           1     22.0000      0.0000    -32.9758   7.500E+00   4.000E-01   0.000E+00   0.000E+00           T           F   0.000E+00   4.000E-01   0.000E+00   0.000E+00   0.000E+00   0.000E+00   0.000E+00         -           -           -  
    53           1     22.0000      0.0000    -33.9753   7.500E+00   4.000E-01   0.000E+00   0.000E+00           T           F   0.000E+00   4.000E-01   0.000E+00   0.000E+00   0.000E+00   0.000E+00   0.000E+00         -           -           -  
    54           1     22.0000      0.0000    -34.9747   7.500E+00   4.000E-01   0.000E+00   0.000E+00           T           F   0.000E+00   4.000E-01   0.000E+00   0.000E+00   0.000E+00   0.000E+00   0.000E+00         -           -           -  
    55           1     22.0000      0.0000    -35.9741   7.500E+00   4.000E-01   0.000E+00   0.000E+00           T           F   0.000E+00   4.000E-01   0.000E+00   0.000E+00   0.000E+00   0.000E+00   0.000E+00         -           -           -  
    56           1     22.0000      0.0000    -36.9736   7.500E+00   4.000E-01   0.000E+00   0.000E+00           T           F   0.000E+00   4.000E-01   0.000E+00   0.000E+00   0.000E+00   0.000E+00   0.000E+00         -           -           -  
    57           1     22.0000      0.0000    -37.9730   7.500E+00   4.000E-01   0.000E+00   0.000E+00           T           F   0.000E+00   4.000E-01   0.000E+00   0.000E+00   0.000E+00   0.000E+00   0.000E+00         -           -           -  
    58           1     22.0000      0.0000    -38.9724   7.500E+00   4.000E-01   0.000E+00   0.000E+00           T           F   0.000E+00   4.000E-01   0.000E+00   0.000E+00   0.000E+00   0.000E+00   0.000E+00         -           -           -  
    59           1     22.0000      0.0000    -39.9719   7.500E+00   4.000E-01   0.000E+00   0.000E+00           T           F   0.000E+00   4.000E-01   0.000E+00   0.000E+00   0.000E+00   0.000E+00   0.000E+00         -           -           -  
    60           1     22.0000      0.0000    -40.9713   7.500E+00   4.000E-01   0.000E+00   0.000E+00           T           F   0.000E+00   4.000E-01   0.000E+00   0.000E+00   0.000E+00   0.000E+00   0.000E+00         -           -           -  
    61           1     22.0000      0.0000    -41.9707   7.500E+00   4.000E-01   0.000E+00   0.000E+00           T           F   0.000E+00   4.000E-01   0.000E+00   0.000E+00   0.000E+00   0.000E+00   0.000E+00         -           -           -  
    62           1     22.0000      0.0000    -42.9702   7.500E+00   4.000E-01   0.000E+00   0.000E+00           T           F   0.000E+00   4.000E-01   0.000E+00   0.000E+00   0.000E+00   0.000E+00   0.000E+00         -           -           -  
    63           1     22.0000      0.0000    -43.9696   7.500E+00   4.000E-01   0.000E+00   0.000E+00           T           F   0.000E+00   4.000E-01   0.000E+00   0.000E+00   0.000E+00   0.000E+00   0.000E+00         -           -           -  
    64           1     22.0000      0.0000    -44.9691   7.500E+00   4.000E-01   0.000E+00   0.000E+00           T           F   0.000E+00   4.000E-01   0.000E+00   0.000E+00   0.000E+00   0.000E+00   0.000E+00         -           -           -  
    65           1     22.0000      0.0000    -45.9685   7.500E+00   4.000E-01   0.000E+00   0.000E+00           T           F   0.000E+00   4.000E-01   0.000E+00   0.000E+00   0.000E+00   0.000E+00   0.000E+00         -           -           -  
    66           1     22.0000      0.0000    -46.9679   7.500E+00   4.000E-01   0.000E+00   0.000E+00           T           F   0.000E+00   4.000E-01   0.000E+00   0.000E+00   0.000E+00   0.000E+00   0.000E+00         -           -           -  
    67           1     22.0000      0.0000    -47.9674   7.500E+00   4.000E-01   0.000E+00   0.000E+00           T           F   0.000E+00   4.000E-01   0.000E+00   0.000E+00   0.000E+00   0.000E+00   0.000E+00         -           -           -  
    68           1     22.0000      0.0000    -48.9668   7.500E+00   4.000E-01   0.000E+00   0.000E+00           T           F   0.000E+00   4.000E-01   0.000E+00   0.000E+00   0.000E+00   0.000E+00   0.000E+00         -           -           -  
    69           1     22.0000      0.0000    -49.9663   7.500E+00   4.000E-01   0.000E+00   0.000E+00           T           F   0.000E+00   4.000E-01   0.000E+00   0.000E+00   0.000E+00   0.000E+00   0.000E+00         -           -           -  
    70           1     22.0000      0.0000    -50.9657   7.500E+00   4.000E-01   0.000E+00   0.000E+00           T           F   0.000E+00   4.000E-01   0.000E+00   0.000E+00   0.000E+00   0.000E+00   0.000E+00         -           -           -  
    71           1     22.0000      0.0000    -51.9651   7.500E+00   4.000E-01   0.000E+00   0.000E+00           T           F   0.000E+00   4.000E-01   0.000E+00   0.000E+00   0.000E+00   0.000E+00   0.000E+00         -           -           -  
    72           1     22.0000      0.0000    -52.9646   7.500E+00   4.000E-01   0.000E+00   0.000E+00           T           F   0.000E+00   4.000E-01   0.000E+00   0.000E+00   0.000E+00   0.000E+00   0.000E+00         -           -           -  
    73           3    -11.0000     19.0526      9.0006   7.500E+00   4.000E-01   0.000E+00   0.000E+00           T           F   0.000E+00   4.000E-01   0.000E+00   0.000E+00   0.000E+00   0.000E+00   0.000E+00         -           -           -  
    74           3    -11.0000     19.0526      8.0011   7.500E+00   4.000E-01   0.000E+00   0.000E+00           T           F   0.000E+00   4.000E-01   0.000E+00   0.000E+00   0.000E+00   0.000E+00   0.000E+00         -           -           -  
    75           3    -11.0000     19.0526      7.0017   7.500E+00   4.000E-01   0.000E+00   0.000E+00           T           F   0.000E+00   4.000E-01   0.000E+00   0.000E+00   0.000E+00   0.000E+00   0.000E+00         -           -           -  
    76           3    -11.0000     19.0526      6.0022   7.500E+00   4.000E-01   0.000E+00   0.000E+00           T           F   0.000E+00   4.000E-01   0.000E+00   0.000E+00   0.000E+00   0.000E+00   0.000E+00         -           -           -  
    77           3    -11.0000     19.0526      5.0028   7.500E+00   4.000E-01   0.000E+00   0.000E+00           T           F   0.000E+00   4.000E-01   0.000E+00   0.000E+00   0.000E+00   0.000E+00   0.000E+00         -           -           -  
    78           3    -11.0000     19.0526      4.0034   7.500E+00   4.000E-01   0.000E+00   0.000E+00           T           F   0.000E+00   4.000E-01   0.000E+00   0.000E+00   0.000E+00   0.000E+00   0.000E+00         -           -           -  
    79           3    -11.0000     19.0526      3.0039   7.500E+00   4.000E-01   0.000E+00   0.000E+00           T           F   0.000E+00   4.000E-01   0.000E+00   0.000E+00   0.000E+00   0.000E+00   0.000E+00         -           -           -  
    80           3    -11.0000     19.0526      2.0045   7.500E+00   4.000E-01   0.000E+00   0.000E+00           T           F   0.000E+00   4.000E-01   0.000E+00   0.000E+00   0.000E+00   0.000E+00   0.000E+00         -           -           -  
    81           3    -11.0000     19.0526      1.0051   7.500E+00   4.000E-01   0.000E+00   0.000E+00           T           F   0.000E+00   4.000E-01   0.000E+00   0.000E+00   0.000E+00   0.000E+00   0.000E+00         -           -           -  
    82           3    -11.0000     19.0526      0.0056   7.500E+00   4.000E-01   0.000E+00   0.000E+00           T           F   0.000E+00   4.000E-01   0.000E+00   0.000E+00   0.000E+00   0.000E+00   0.000E+00         -           -           -  
    83           3    -11.0000     19.0526     -0.9938   7.500E+00   4.000E-01   0.000E+00   0.000E+00           T           F   0.000E+00   4.000E-01   0.000E+00   0.000E+00   0.000E+00   0.000E+00   0.000E+00         -           -           -  
    84           3    -11.0000     19.0526     -1.9932   7.500E+00   4.000E-01   0.000E+00   0.000E+00           T           F   0.000E+00   4.000E-01   0.000E+00   0.000E+00   0.000E+00   0.000E+00   0.000E+00         -           -           -  
    85           3    -11.0000     19.0526     -2.9927   7.500E+00   4.000E-01   0.000E+00   0.000E+00           T           F   0.000E+00   4.000E-01   0.000E+00   0.000E+00   0.000E+00   0.000E+00   0.000E+00         -           -           -  
    86           3    -11.0000     19.0526     -3.9921   7.500E+00   4.000E-01   0.000E+00   0.000E+00           T           F   0.000E+00   4.000E-01   0.000E+00   0.000E+00   0.000E+00   0.000E+00   0.000E+00         -           -           -  
    87           3    -11.0000     19.0526     -4.9916   7.500E+00   4.000E-01   0.000E+00   0.000E+00           T           F   0.000E+00   4.000E-01   0.000E+00   0.000E+00   0.000E+00   0.000E+00   0.000E+00         -           -           -  
    88           3    -11.0000     19.0526     -5.9910   7.500E+00   4.000E-01   0.000E+00   0.000E+00           T           F   0.000E+00   4.000E-01   0.000E+00   0.000E+00   0.000E+00   0.000E+00   0.000E+00         -           -           -  
    89           3    -11.0000     19.0526     -6.9904   7.500E+00   4.000E-01   0.000E+00   0.000E+00           T           F   0.000E+00   4.000E-01   0.000E+00   0.000E+00   0.000E+00   0.000E+00   0.000E+00         -           -           -  
    90           3    -11.0000     19.0526     -7.9899   7.500E+00   4.000E-01   0.000E+00   0.000E+00           T           F   0.000E+00   4.000E-01   0.000E+00   0.000E+00   0.000E+00   0.000E+00   0.000E+00         -           -           -  
    91           3    -11.0000     19.0526     -8.9893   7.500E+00   4.000E-01   0.000E+00   0.000E+00           T           F   0.000E+00   4.000E-01   0.000E+00   0.000E+00   0.000E+00   0.000E+00   0.000E+00         -           -           -  
    92           3    -11.0000     19.0526     -9.9888   7.500E+00   4.000E-01   0.000E+00   0.000E+00           T           F   0.000E+00   4.000E-01   0.000E+00   0.000E+00   0.000E+00   0.000E+00   0.000E+00         -           -           -  
    93           3    -11.0000     19.0526    -10.9882   7.500E+00   4.000E-01   0.000E+00   0.000E+00           T           F   0.000E+00   4.000E-01   0.000E+00   0.000E+00   0.000E+00   0.000E+00   0.000E+00         -           -           -  
    94           3    -11.0000     19.0526    -11.9876   7.500E+00   4.000E-01   0.000E+00   0.000E+00           T           F   0.000E+00   4.000E-01   0.000E+00   0.000E+00   0.000E+00   0.000E+00   0.000E+00         -           -           -  
    95           3    -11.0000     19.0526    -12.9871   7.500E+00   4.000E-01   0.000E+00   0.000E+00           T           F   0.000E+00   4.000E-01   0.000E+00   0.000E+00   0.000E+00   0.000E+00   0.000E+00         -           -           -  
    96           3    -11.0000     19.0526    -13.9865   7.500E+00   4.000E-01   0.000E+00   0.000E+00           T           F   0.000E+00   4.000E-01   0.000E+00   0.000E+00   0.000E+00   0.000E+00   0.000E+00         -           -           -  
    97           3    -11.0000     19.0526    -14.9859   7.500E+00   4.000E-01   0.000E+00   0.000E+00           T           F   0.000E+00   4.000E-01   0.000E+00   0.000E+00   0.000E+00   0.000E+00   0.000E+00         -           -           -  
    98           3    -11.0000     19.0526    -15.9854   7.500E+00   4.000E-01   0.000E+00   0.000E+00           T           F   0.000E+00   4.000E-01   0.000E+00   0.000E+00   0.000E+00   0.000E+00   0.000E+00         -           -           -  
    99           3    -11.0000     19.0526    -16.9848   7.500E+00   4.000E-01   0.000E+00   0.000E+00           T           F   0.000E+00   4.000E-01   0.000E+00   0.000E+00   0.000E+00   0.000E+00   0.000E+00         -           -           -  
   100           3    -11.0000     19.0526    -17.9843   7.500E+00   4.000E-01   0.000E+00   0.000E+00           T           F   0.000E+00   4.000E-01   0.000E+00   0.000E+00   0.000E+00   0.000E+00   0.000E+00         -           -           -  
   101           3    -11.0000     19.0526    -18.9837   7.500E+00   4.000E-01   0.000E+00   0.000E+00           T           F   0.000E+00   4.000E-01   0.000E+00   0.000E+00   0.000E+00   0.000E+00   0.000E+00         -           -           -  
   102           3    -11.0000     19.0526    -19.9831   7.500E+00   4.000E-01   0.000E+00   0.000E+00           T           F   0.000E+00   4.000E-01   0.000E+00   0.000E+00   0.000E+00   0.000E+00   0.000E+00         -           -           -  
   103           3    -11.0000     19.0526    -20.9826   7.500E+00   4.000E-01   0.000E+00   0.000E+00           T           F   0.000E+00   4.000E-01   0.000E+00   0.000E+00   0.000E+00   0.000E+00   0.000E+00         -           -           -  
   104           3    -11.0000     19.0526    -21.9820   7.500E+00   4.000E-01   0.000E+00   0.000E+00           T           F   0.000E+00   4.000E-01   0.000E+00   0.000E+00   0.000E+00   0.000E+00   0.000E+00         -           -           -  
   105           3    -11.0000     19.0526    -22.9814   7.500E+00   4.000E-01   0.000E+00   0.000E+00           T           F   0.000E+00   4.000E-01   0.000E+00   0.000E+00   0.000E+00   0.000E+00   0.000E+00         -           -           -  
   106           3    -11.0000     19.0526    -23.9809   7.500E+00   4.000E-01   0.000E+00   0.000E+00           T           F   0.000E+00   4.000E-01   0.000E+00   0.000E+00   0.000E+00   0.000E+00   0.000E+00         -           -           -  
   107           3    -11.0000     19.0526    -24.9803   7.500E+00   4.000E-01   0.000E+00   0.000E+00           T           F   0.000E+00   4.000E-01   0.000E+00   0.000E+00   0.000E+00   0.000E+00   0.000E+00         -           -           -  
   108           3    -11.0000     19.0526    -25.9797   7.500E+00   4.000E-01   0.000E+00   0.000E+00           T           F   0.000E+00   4.000E-01   0.000E+00   0.000E+00   0.000E+00   0.000E+00   0.000E+00         -           -           -  
   109           3    -11.0000     19.0526    -26.9792   7.500E+00   4.000E-01   0.000E+00   0.000E+00           T           F   0.000E+00   4.000E-01   0.000E+00   0.000E+00   0.000E+00   0.000E+00   0.000E+00         -           -           -  
   110           3    -11.0000     19.0526    -27.9786   7.500E+00   4.000E-01   0.000E+00   0.000E+00           T           F   0.000E+00   4.000E-01   0.000E+00   0.000E+00   0.000E+00   0.000E+00   0.000E+00         -           -           -  
   111           3    -11.0000     19.0526    -28.9781   7.500E+00   4.000E-01   0.000E+00   0.000E+00           T           F   0.000E+00   4.000E-01   0.000E+00   0.000E+00   0.000E+00   0.000E+00   0.000E+00         -           -           -  
   112           3    -11.0000     19.0526    -29.9775   7.500E+00   4.000E-01   0.000E+00   0.000E+00           T           F   0.000E+00   4.000E-01   0.000E+00   0.000E+00   0.000E+00   0.000E+00   0.000E+00         -           -           -  
   113           3    -11.0000     19.0526    -30.9769   7.500E+00   4.000E-01   0.000E+00   0.000E+00           T           F   0.000E+00   4.000E-01   0.000E+00   0.000E+00   0.000E+00   0.000E+00   0.000E+00         -           -           -  
   114           3    -11.0000     19.0526    -31.9764   7.500E+00   4.000E-01   0.000E+00   0.000E+00           T           F   0.000E+00   4.000E-01   0.000E+00   0.000E+00   0.000E+00   0.000E+00   0.000E+00         -           -           -  
   115           3    -11.0000     19.0526    -32.9758   7.500E+00   4.000E-01   0.000E+00   0.000E+00           T           F   0.000E+00   4.000E-01   0.000E+00   0.000E+00   0.000E+00   0.000E+00   0.000E+00         -           -           -  
   116           3    -11.0000     19.0526    -33.9753   7.500E+00   4.000E-01   0.000E+00   0.000E+00           T           F   0.000E+00   4.000E-01   0.000E+00   0.000E+00   0.000E+00   0.000E+00   0.000E+00         -           -           -  
   117           3    -11.0000     19.0526    -34.9747   7.500E+00   4.000E-01   0.000E+00   0.000E+00           T           F   0.000E+00   4.000E-01   0.000E+00   0.000E+00   0.000E+00   0.000E+00   0.000E+00         -           -           -  
   118           3    -11.0000     19.0526    -35.9741   7.500E+00   4.000E-01   0.000E+00   0.000E+00           T           F   0.000E+00   4.000E-01   0.000E+00   0.000E+00   0.000E+00   0.000E+00   0.000E+00         -           -           -  
   119           3    -11.0000     19.0526    -36.9736   7.500E+00   4.000E-01   0.000E+00   0.000E+00           T           F   0.000E+00   4.000E-01   0.000E+00   0.000E+00   0.000E+00   0.000E+00   0.000E+00         -           -           -  
   120           3    -11.0000     19.0526    -37.9730   7.500E+00   4.000E-01   0.000E+00   0.000E+00           T           F   0.000E+00   4.000E-01   0.000E+00   0.000E+00   0.000E+00   0.000E+00   0.000E+00         -           -           -  
   121           3    -11.0000     19.0526    -38.9724   7.500E+00   4.000E-01   0.000E+00   0.000E+00           T           F   0.000E+00   4.000E-01   0.000E+00   0.000E+00   0.000E+00   0.000E+00   0.000E+00         -           -           -  
   122           3    -11.0000     19.0526    -39.9719   7.500E+00   4.000E-01   0.000E+00   0.000E+00           T           F   0.000E+00   4.000E-01   0.000E+00   0.000E+00   0.000E+00   0.000E+00   0.000E+00         -           -           -  
   123           3    -11.0000     19.0526    -40.9713   7.500E+00   4.000E-01   0.000E+00   0.000E+00           T           F   0.000E+00   4.000E-01   0.000E+00   0.000E+00   0.000E+00   0.000E+00   0.000E+00         -           -           -  
   124           3    -11.0000     19.0526    -41.9707   7.500E+00   4.000E-01   0.000E+00   0.000E+00           T           F   0.000E+00   4.000E-01   0.000E+00   0.000E+00   0.000E+00   0.000E+00   0.000E+00         -           -           -  
   125           3    -11.0000     19.0526    -42.9702   7.500E+00   4.000E-01   0.000E+00   0.000E+00           T           F   0.000E+00   4.000E-01   0.000E+00   0.000E+00   0.000E+00   0.000E+00   0.000E+00         -           -           -  
   126           3    -11.0000     19.0526    -43.9696   7.500E+00   4.000E-01   0.000E+00   0.000E+00           T           F   0.000E+00   4.000E-01   0.000E+00   0.000E+00   0.000E+00   0.000E+00   0.000E+00         -           -           -  
   127           3    -11.0000     19.0526    -44.9691   7.500E+00   4.000E-01   0.000E+00   0.000E+00           T           F   0.000E+00   4.000E-01   0.000E+00   0.000E+00   0.000E+00   0.000E+00   0.000E+00         -           -           -  
   128           3    -11.0000     19.0526    -45.9685   7.500E+00   4.000E-01   0.000E+00   0.000E+00           T           F   0.000E+00   4.000E-01   0.000E+00   0.000E+00   0.000E+00   0.000E+00   0.000E+00         -           -           -  
   129           3    -11.0000     19.0526    -46.9679   7.500E+00   4.000E-01   0.000E+00   0.000E+00           T           F   0.000E+00   4.000E-01   0.000E+00   0.000E+00   0.000E+00   0.000E+00   0.000E+00         -           -           -  
   130           3    -11.0000     19.0526    -47.9674   7.500E+00   4.000E-01   0.000E+00   0.000E+00           T           F   0.000E+00   4.000E-01   0.000E+00   0.000E+00   0.000E+00   0.000E+00   0.000E+00         -           -           -  
   131           3    -11.0000     19.0526    -48.9668   7.500E+00   4.000E-01   0.000E+00   0.000E+00           T           F   0.000E+00   4.000E-01   0.000E+00   0.000E+00   0.000E+00   0.000E+00   0.000E+00         -           -           -  
   132           3    -11.0000     19.0526    -49.9663   7.500E+00   4.000E-01   0.000E+00   0.000E+00           T           F   0.000E+00   4.000E-01   0.000E+00   0.000E+00   0.000E+00   0.000E+00   0.000E+00         -           -           -  
   133           3    -11.0000     19.0526    -50.9657   7.500E+00   4.000E-01   0.000E+00   0.000E+00           T           F   0.000E+00   4.000E-01   0.000E+00   0.000E+00   0.000E+00   0.000E+00   0.000E+00         -           -           -  
   134           3    -11.0000     19.0526    -51.9651   7.500E+00   4.000E-01   0.000E+00   0.000E+00           T           F   0.000E+00   4.000E-01   0.000E+00   0.000E+00   0.000E+00   0.000E+00   0.000E+00         -           -           -  
   135           3    -11.0000     19.0526    -52.9646   7.500E+00   4.000E-01   0.000E+00   0.000E+00           T           F   0.000E+00   4.000E-01   0.000E+00   0.000E+00   0.000E+00   0.000E+00   0.000E+00         -           -           -  
   136           5    -11.0000    -19.0526      9.0006   7.500E+00   4.000E-01   0.000E+00   0.000E+00           T           F   0.000E+00   4.000E-01   0.000E+00   0.000E+00   0.000E+00   0.000E+00   0.000E+00         -           -           -  
   137           5    -11.0000    -19.0526      8.0011   7.500E+00   4.000E-01   0.000E+00   0.000E+00           T           F   0.000E+00   4.000E-01   0.000E+00   0.000E+00   0.000E+00   0.000E+00   0.000E+00         -           -           -  
   138           5    -11.0000    -19.0526      7.0017   7.500E+00   4.000E-01   0.000E+00   0.000E+00           T           F   0.000E+00   4.000E-01   0.000E+00   0.000E+00   0.000E+00   0.000E+00   0.000E+00         -           -           -  
   139           5    -11.0000    -19.0526      6.0022   7.500E+00   4.000E-01   0.000E+00   0.000E+00           T           F   0.000E+00   4.000E-01   0.000E+00   0.000E+00   0.000E+00   0.000E+00   0.000E+00         -           -           -  
   140           5    -11.0000    -19.0526      5.0028   7.500E+00   4.000E-01   0.000E+00   0.000E+00           T           F   0.000E+00   4.000E-01   0.000E+00   0.000E+00   0.000E+00   0.000E+00   0.000E+00         -           -           -  
   141           5    -11.0000    -19.0526      4.0034   7.500E+00   4.000E-01   0.000E+00   0.000E+00           T           F   0.000E+00   4.000E-01   0.000E+00   0.000E+00   0.000E+00   0.000E+00   0.000E+00         -           -           -  
   142           5    -11.0000    -19.0526      3.0039   7.500E+00   4.000E-01   0.000E+00   0.000E+00           T           F   0.000E+00   4.000E-01   0.000E+00   0.000E+00   0.000E+00   0.000E+00   0.000E+00         -           -           -  
   143           5    -11.0000    -19.0526      2.0045   7.500E+00   4.000E-01   0.000E+00   0.000E+00           T           F   0.000E+00   4.000E-01   0.000E+00   0.000E+00   0.000E+00   0.000E+00   0.000E+00         -           -           -  
   144           5    -11.0000    -19.0526      1.0051   7.500E+00   4.000E-01   0.000E+00   0.000E+00           T           F   0.000E+00   4.000E-01   0.000E+00   0.000E+00   0.000E+00   0.000E+00   0.000E+00         -           -           -  
   145           5    -11.0000    -19.0526      0.0056   7.500E+00   4.000E-01   0.000E+00   0.000E+00           T           F   0.000E+00   4.000E-01   0.000E+00   0.000E+00   0.000E+00   0.000E+00   0.000E+00         -           -           -  
   146           5    -11.0000    -19.0526     -0.9938   7.500E+00   4.000E-01   0.000E+00   0.000E+00           T           F   0.000E+00   4.000E-01   0.000E+00   0.000E+00   0.000E+00   0.000E+00   0.000E+00         -           -           -  
   147           5    -11.0000    -19.0526     -1.9932   7.500E+00   4.000E-01   0.000E+00   0.000E+00           T           F   0.000E+00   4.000E-01   0.000E+00   0.000E+00   0.000E+00   0.000E+00   0.000E+00         -           -           -  
   148           5    -11.0000    -19.0526     -2.9927   7.500E+00   4.000E-01   0.000E+00   0.000E+00           T           F   0.000E+00   4.000E-01   0.000E+00   0.000E+00   0.000E+00   0.000E+00   0.000E+00         -           -           -  
   149           5    -11.0000    -19.0526     -3.9921   7.500E+00   4.000E-01   0.000E+00   0.000E+00           T           F   0.000E+00   4.000E-01   0.000E+00   0.000E+00   0.000E+00   0.000E+00   0.000E+00         -           -           -  
   150           5    -11.0000    -19.0526     -4.9916   7.500E+00   4.000E-01   0.000E+00   0.000E+00           T           F   0.000E+00   4.000E-01   0.000E+00   0.000E+00   0.000E+00   0.000E+00   0.000E+00         -           -           -  
   151           5    -11.0000    -19.0526     -5.9910   7.500E+00   4.000E-01   0.000E+00   0.000E+00           T           F   0.000E+00   4.000E-01   0.000E+00   0.000E+00   0.000E+00   0.000E+00   0.000E+00         -           -           -  
   152           5    -11.0000    -19.0526     -6.9904   7.500E+00   4.000E-01   0.000E+00   0.000E+00           T           F   0.000E+00   4.000E-01   0.000E+00   0.000E+00   0.000E+00   0.000E+00   0.000E+00         -           -           -  
   153           5    -11.0000    -19.0526     -7.9899   7.500E+00   4.000E-01   0.000E+00   0.000E+00           T           F   0.000E+00   4.000E-01   0.000E+00   0.000E+00   0.000E+00   0.000E+00   0.000E+00         -           -           -  
   154           5    -11.0000    -19.0526     -8.9893   7.500E+00   4.000E-01   0.000E+00   0.000E+00           T           F   0.000E+00   4.000E-01   0.000E+00   0.000E+00   0.000E+00   0.000E+00   0.000E+00         -           -           -  
   155           5    -11.0000    -19.0526     -9.9888   7.500E+00   4.000E-01   0.000E+00   0.000E+00           T           F   0.000E+00   4.000E-01   0.000E+00   0.000E+00   0.000E+00   0.000E+00   0.000E+00         -           -           -  
   156           5    -11.0000    -19.0526    -10.9882   7.500E+00   4.000E-01   0.000E+00   0.000E+00           T           F   0.000E+00   4.000E-01   0.000E+00   0.000E+00   0.000E+00   0.000E+00   0.000E+00         -           -           -  
   157           5    -11.0000    -19.0526    -11.9876   7.500E+00   4.000E-01   0.000E+00   0.000E+00           T           F   0.000E+00   4.000E-01   0.000E+00   0.000E+00   0.000E+00   0.000E+00   0.000E+00         -           -           -  
   158           5    -11.0000    -19.0526    -12.9871   7.500E+00   4.000E-01   0.000E+00   0.000E+00           T           F   0.000E+00   4.000E-01   0.000E+00   0.000E+00   0.000E+00   0.000E+00   0.000E+00         -           -           -  
   159           5    -11.0000    -19.0526    -13.9865   7.500E+00   4.000E-01   0.000E+00   0.000E+00           T           F   0.000E+00   4.000E-01   0.000E+00   0.000E+00   0.000E+00   0.000E+00   0.000E+00         -           -           -  
   160           5    -11.0000    -19.0526    -14.9859   7.500E+00   4.000E-01   0.000E+00   0.000E+00           T           F   0.000E+00   4.000E-01   0.000E+00   0.000E+00   0.000E+00   0.000E+00   0.000E+00         -           -           -  
   161           5    -11.0000    -19.0526    -15.9854   7.500E+00   4.000E-01   0.000E+00   0.000E+00           T           F   0.000E+00   4.000E-01   0.000E+00   0.000E+00   0.000E+00   0.000E+00   0.000E+00         -           -           -  
   162           5    -11.0000    -19.0526    -16.9848   7.500E+00   4.000E-01   0.000E+00   0.000E+00           T           F   0.000E+00   4.000E-01   0.000E+00   0.000E+00   0.000E+00   0.000E+00   0.000E+00         -           -           -  
   163           5    -11.0000    -19.0526    -17.9843   7.500E+00   4.000E-01   0.000E+00   0.000E+00           T           F   0.000E+00   4.000E-01   0.000E+00   0.000E+00   0.000E+00   0.000E+00   0.000E+00         -           -           -  
   164           5    -11.0000    -19.0526    -18.9837   7.500E+00   4.000E-01   0.000E+00   0.000E+00           T           F   0.000E+00   4.000E-01   0.000E+00   0.000E+00   0.000E+00   0.000E+00   0.000E+00         -           -           -  
   165           5    -11.0000    -19.0526    -19.9831   7.500E+00   4.000E-01   0.000E+00   0.000E+00           T           F   0.000E+00   4.000E-01   0.000E+00   0.000E+00   0.000E+00   0.000E+00   0.000E+00         -           -           -  
   166           5    -11.0000    -19.0526    -20.9826   7.500E+00   4.000E-01   0.000E+00   0.000E+00           T           F   0.000E+00   4.000E-01   0.000E+00   0.000E+00   0.000E+00   0.000E+00   0.000E+00         -           -           -  
   167           5    -11.0000    -19.0526    -21.9820   7.500E+00   4.000E-01   0.000E+00   0.000E+00           T           F   0.000E+00   4.000E-01   0.000E+00   0.000E+00   0.000E+00   0.000E+00   0.000E+00         -           -           -  
   168           5    -11.0000    -19.0526    -22.9814   7.500E+00   4.000E-01   0.000E+00   0.000E+00           T           F   0.000E+00   4.000E-01   0.000E+00   0.000E+00   0.000E+00   0.000E+00   0.000E+00         -           -           -  
   169           5    -11.0000    -19.0526    -23.9809   7.500E+00   4.000E-01   0.000E+00   0.000E+00           T           F   0.000E+00   4.000E-01   0.000E+00   0.000E+00   0.000E+00   0.000E+00   0.000E+00         -           -           -  
   170           5    -11.0000    -19.0526    -24.9803   7.500E+00   4.000E-01   0.000E+00   0.000E+00           T           F   0.000E+00   4.000E-01   0.000E+00   0.000E+00   0.000E+00   0.000E+00   0.000E+00         -           -           -  
   171           5    -11.0000    -19.0526    -25.9797   7.500E+00   4.000E-01   0.000E+00   0.000E+00           T           F   0.000E+00   4.000E-01   0.000E+00   0.000E+00   0.000E+00   0.000E+00   0.000E+00         -           -           -  
   172           5    -11.0000    -19.0526    -26.9792   7.500E+00   4.000E-01   0.000E+00   0.000E+00           T           F   0.000E+00   4.000E-01   0.000E+00   0.000E+00   0.000E+00   0.000E+00   0.000E+00         -           -           -  
   173           5    -11.0000    -19.0526    -27.9786   7.500E+00   4.000E-01   0.000E+00   0.000E+00           T           F   0.000E+00   4.000E-01   0.000E+00   0.000E+00   0.000E+00   0.000E+00   0.000E+00         -           -           -  
   174           5    -11.0000    -19.0526    -28.9781   7.500E+00   4.000E-01   0.000E+00   0.000E+00           T           F   0.000E+00   4.000E-01   0.000E+00   0.000E+00   0.000E+00   0.000E+00   0.000E+00         -           -           -  
   175           5    -11.0000    -19.0526    -29.9775   7.500E+00   4.000E-01   0.000E+00   0.000E+00           T           F   0.000E+00   4.000E-01   0.000E+00   0.000E+00   0.000E+00   0.000E+00   0.000E+00         -           -           -  
   176           5    -11.0000    -19.0526    -30.9769   7.500E+00   4.000E-01   0.000E+00   0.000E+00           T           F   0.000E+00   4.000E-01   0.000E+00   0.000E+00   0.000E+00   0.000E+00   0.000E+00         -           -           -  
   177           5    -11.0000    -19.0526    -31.9764   7.500E+00   4.000E-01   0.000E+00   0.000E+00           T           F   0.000E+00   4.000E-01   0.000E+00   0.000E+00   0.000E+00   0.000E+00   0.000E+00         -           -           -  
   178           5    -11.0000    -19.0526    -32.9758   7.500E+00   4.000E-01   0.000E+00   0.000E+00           T           F   0.000E+00   4.000E-01   0.000E+00   0.000E+00   0.000E+00   0.000E+00   0.000E+00         -           -           -  
   179           5    -11.0000    -19.0526    -33.9753   7.500E+00   4.000E-01   0.000E+00   0.000E+00           T           F   0.000E+00   4.000E-01   0.000E+00   0.000E+00   0.000E+00   0.000E+00   0.000E+00         -           -           -  
   180           5    -11.0000    -19.0526    -34.9747   7.500E+00   4.000E-01   0.000E+00   0.000E+00           T           F   0.000E+00   4.000E-01   0.000E+00   0.000E+00   0.000E+00   0.000E+00   0.000E+00         -           -           -  
   181           5    -11.0000    -19.0526    -35.9741   7.500E+00   4.000E-01   0.000E+00   0.000E+00           T           F   0.000E+00   4.000E-01   0.000E+00   0.000E+00   0.000E+00   0.000E+00   0.000E+00         -           -           -  
   182           5    -11.0000    -19.0526    -36.9736   7.500E+00   4.000E-01   0.000E+00   0.000E+00           T           F   0.000E+00   4.000E-01   0.000E+00   0.000E+00   0.000E+00   0.000E+00   0.000E+00         -           -           -  
   183           5    -11.0000    -19.0526    -37.9730   7.500E+00   4.000E-01   0.000E+00   0.000E+00           T           F   0.000E+00   4.000E-01   0.000E+00   0.000E+00   0.000E+00   0.000E+00   0.000E+00         -           -           -  
   184           5    -11.0000    -19.0526    -38.9724   7.500E+00   4.000E-01   0.000E+00   0.000E+00           T           F   0.000E+00   4.000E-01   0.000E+00   0.000E+00   0.000E+00   0.000E+00   0.000E+00         -           -           -  
   185           5    -11.0000    -19.0526    -39.9719   7.500E+00   4.000E-01   0.000E+00   0.000E+00           T           F   0.000E+00   4.000E-01   0.000E+00   0.000E+00   0.000E+00   0.000E+00   0.000E+00         -           -           -  
   186           5    -11.0000    -19.0526    -40.9713   7.500E+00   4.000E-01   0.000E+00   0.000E+00           T           F   0.000E+00   4.000E-01   0.000E+00   0.000E+00   0.000E+00   0.000E+00   0.000E+00         -           -           -  
   187           5    -11.0000    -19.0526    -41.9707   7.500E+00   4.000E-01   0.000E+00   0.000E+00           T           F   0.000E+00   4.000E-01   0.000E+00   0.000E+00   0.000E+00   0.000E+00   0.000E+00         -           -           -  
   188           5    -11.0000    -19.0526    -42.9702   7.500E+00   4.000E-01   0.000E+00   0.000E+00           T           F   0.000E+00   4.000E-01   0.000E+00   0.000E+00   0.000E+00   0.000E+00   0.000E+00         -           -           -  
   189           5    -11.0000    -19.0526    -43.9696   7.500E+00   4.000E-01   0.000E+00   0.000E+00           T           F   0.000E+00   4.000E-01   0.000E+00   0.000E+00   0.000E+00   0.000E+00   0.000E+00         -           -           -  
   190           5    -11.0000    -19.0526    -44.9691   7.500E+00   4.000E-01   0.000E+00   0.000E+00           T           F   0.000E+00   4.000E-01   0.000E+00   0.000E+00   0.000E+00   0.000E+00   0.000E+00         -           -           -  
   191           5    -11.0000    -19.0526    -45.9685   7.500E+00   4.000E-01   0.000E+00   0.000E+00           T           F   0.000E+00   4.000E-01   0.000E+00   0.000E+00   0.000E+00   0.000E+00   0.000E+00         -           -           -  
   192           5    -11.0000    -19.0526    -46.9679   7.500E+00   4.000E-01   0.000E+00   0.000E+00           T           F   0.000E+00   4.000E-01   0.000E+00   0.000E+00   0.000E+00   0.000E+00   0.000E+00         -           -           -  
   193           5    -11.0000    -19.0526    -47.9674   7.500E+00   4.000E-01   0.000E+00   0.000E+00           T           F   0.000E+00   4.000E-01   0.000E+00   0.000E+00   0.000E+00   0.000E+00   0.000E+00         -           -           -  
   194           5    -11.0000    -19.0526    -48.9668   7.500E+00   4.000E-01   0.000E+00   0.000E+00           T           F   0.000E+00   4.000E-01   0.000E+00   0.000E+00   0.000E+00   0.000E+00   0.000E+00         -           -           -  
   195           5    -11.0000    -19.0526    -49.9663   7.500E+00   4.000E-01   0.000E+00   0.000E+00           T           F   0.000E+00   4.000E-01   0.000E+00   0.000E+00   0.000E+00   0.000E+00   0.000E+00         -           -           -  
   196           5    -11.0000    -19.0526    -50.9657   7.500E+00   4.000E-01   0.000E+00   0.000E+00           T           F   0.000E+00   4.000E-01   0.000E+00   0.000E+00   0.000E+00   0.000E+00   0.000E+00         -           -           -  
   197           5    -11.0000    -19.0526    -51.9651   7.500E+00   4.000E-01   0.000E+00   0.000E+00           T           F   0.000E+00   4.000E-01   0.000E+00   0.000E+00   0.000E+00   0.000E+00   0.000E+00         -           -           -  
   198           5    -11.0000    -19.0526    -52.9646   7.500E+00   4.000E-01   0.000E+00   0.000E+00           T           F   0.000E+00   4.000E-01   0.000E+00   0.000E+00   0.000E+00   0.000E+00   0.000E+00         -           -           -  



 Members


 MemberID  joint1  joint2      Length       NElem         Volume       MGVolume          R1           t1             R2           t2          PropPot      FilledFlag   FillDensity    FillFSLoc     FillMass         Cd1            Ca1          Cp1          AxCd1         AxCa1         AxCp1        JAxCd1        JAxCa1       JAxCp1           Cd2           Ca2           Cp2          AxCd2         AxCa2         AxCp2        JAxCd2        JAxCa2        JAxCp2   
   (-)      (-)     (-)         (m)          (-)          (m^3)         (m^3)            (m)          (m)            (m)          (m)           (-)           (-)        (kg/m^3)         (-)          (kg)           (-)            (-)          (-)           (-)           (-)           (-)           (-)           (-)          (-)            (-)           (-)           (-)           (-)           (-)           (-)           (-)           (-)           (-)    
        1       2       1   6.39640E+01            64   0.00000E+00   0.00000E+00   7.50000E+00   4.00000E-01   7.50000E+00   4.00000E-01             T             F   0.00000E+00   0.00000E+00   0.00000E+00   4.00000E-01   0.00000E+00   0.00000E+00   0.00000E+00   0.00000E+00   0.00000E+00   0.00000E+00   0.00000E+00   0.00000E+00   4.00000E-01   0.00000E+00   0.00000E+00   0.00000E+00   0.00000E+00   0.00000E+00   0.00000E+00   0.00000E+00   0.00000E+00
        2       3       2   5.00000E-01             1   0.00000E+00   0.00000E+00   1.12500E+01   4.00000E-01   1.12500E+01   4.00000E-01             T             F   0.00000E+00   0.00000E+00   0.00000E+00   0.00000E+00   0.00000E+00   0.00000E+00   0.00000E+00   0.00000E+00   0.00000E+00   1.76200E+01   0.00000E+00   0.00000E+00   0.00000E+00   0.00000E+00   0.00000E+00   0.00000E+00   0.00000E+00   0.00000E+00   0.00000E+00   0.00000E+00   0.00000E+00
        3       5       4   6.39640E+01            64   0.00000E+00   0.00000E+00   7.50000E+00   4.00000E-01   7.50000E+00   4.00000E-01             T             F   0.00000E+00   0.00000E+00   0.00000E+00   4.00000E-01   0.00000E+00   0.00000E+00   0.00000E+00   0.00000E+00   0.00000E+00   0.00000E+00   0.00000E+00   0.00000E+00   4.00000E-01   0.00000E+00   0.00000E+00   0.00000E+00   0.00000E+00   0.00000E+00   0.00000E+00   0.00000E+00   0.00000E+00
        4       6       5   5.00000E-01             1   0.00000E+00   0.00000E+00   1.12500E+01   4.00000E-01   1.12500E+01   4.00000E-01             T             F   0.00000E+00   0.00000E+00   0.00000E+00   0.00000E+00   0.00000E+00   0.00000E+00   0.00000E+00   0.00000E+00   0.00000E+00   1.76200E+01   0.00000E+00   0.00000E+00   0.00000E+00   0.00000E+00   0.00000E+00   0.00000E+00   0.00000E+00   0.00000E+00   0.00000E+00   0.00000E+00   0.00000E+00
        5       8       7   6.39640E+01            64   0.00000E+00   0.00000E+00   7.50000E+00   4.00000E-01   7.50000E+00   4.00000E-01             T             F   0.00000E+00   0.00000E+00   0.00000E+00   4.00000E-01   0.00000E+00   0.00000E+00   0.00000E+00   0.00000E+00   0.00000E+00   0.00000E+00   0.00000E+00   0.00000E+00   4.00000E-01   0.00000E+00   0.00000E+00   0.00000E+00   0.00000E+00   0.00000E+00   0.00000E+00   0.00000E+00   0.00000E+00
        6       9       8   5.00000E-01             1   0.00000E+00   0.00000E+00   1.12500E+01   4.00000E-01   1.12500E+01   4.00000E-01             T             F   0.00000E+00   0.00000E+00   0.00000E+00   0.00000E+00   0.00000E+00   0.00000E+00   0.00000E+00   0.00000E+00   0.00000E+00   1.76200E+01   0.00000E+00   0.00000E+00   0.00000E+00   0.00000E+00   0.00000E+00   0.00000E+00   0.00000E+00   0.00000E+00   0.00000E+00   0.00000E+00   0.00000E+00



Requested Member Outputs


   Label         Xi          Yi          Zi       MemberID    StartXi     StartYi     StartZi      EndXi       EndYi       EndZi        Loc    
    (-)          (m)         (m)         (m)        (-)         (m)         (m)         (m)         (m)         (m)         (m)         (-)    



 Requested Joint Outputs


   Label         Xi          Yi          Zi      InpJointID
    (-)          (m)         (m)         (m)        (-)    



Radiation memory effect kernel



      n           t                   K11               K12               K13               K14               K15               K16               K21               K22               K23               K24               K25               K26               K31               K32               K33               K34               K35               K36               K41               K42               K43               K44               K45               K46               K51               K52               K53               K54               K55               K56               K61               K62               K63               K64               K65               K66
     (-)         (s)            (kg/s^2)          (kg/s^2)          (kg/s^2)         (kgm/s^2)         (kgm/s^2)         (kgm/s^2)          (kg/s^2)          (kg/s^2)          (kg/s^2)         (kgm/s^2)         (kgm/s^2)         (kgm/s^2)          (kg/s^2)          (kg/s^2)          (kg/s^2)         (kgm/s^2)         (kgm/s^2)         (kgm/s^2)         (kgm/s^2)         (kgm/s^2)         (kgm/s^2)        (kgm^2/s^2)       (kgm^2/s^2)       (kgm^2/s^2)        (kgm/s^2)         (kgm/s^2)         (kgm/s^2)        (kgm^2/s^2)       (kgm^2/s^2)       (kgm^2/s^2)        (kgm/s^2)         (kgm/s^2)         (kgm/s^2)        (kgm^2/s^2)       (kgm^2/s^2)       (kgm^2/s^2)
          0   0.00000E+00       4.44406E+06       1.42186E+01       6.84211E+00       1.80417E+02      -3.24667E+07      -1.33473E+03       1.33273E+01       4.44402E+06      -9.86828E-01       3.24654E+07      -1.68070E+02      -9.83118E+03       2.18858E+00      -3.29880E-01       2.67043E+04      -2.21106E+00      -1.25440E+01      -6.26640E-02       8.58673E+01       3.25815E+07      -1.47468E+00       3.55323E+08      -4.18786E+02      -2.09937E+04      -3.25822E+07      -1.41315E+01      -1.47013E+01      -1.59608E+01       3.55329E+08       2.37620E+03      -6.79009E+01      -1.77321E+03      -5.34881E-02       1.13857E+04      -3.53865E+03       1.93096E+09
          1   0.25000E-01       4.44113E+06       1.41937E+01       6.82707E+00       1.79991E+02      -3.24547E+07      -1.33185E+03       1.33076E+01       4.44109E+06      -9.84445E-01       3.24533E+07      -1.67676E+02      -9.81126E+03       2.18737E+00      -3.29726E-01       2.67028E+04      -2.21019E+00      -1.25378E+01      -6.24461E-02       8.57476E+01       3.25690E+07      -1.47142E+00       3.55242E+08      -4.18248E+02      -2.09489E+04      -3.25697E+07      -1.40532E+01      -1.46776E+01      -1.55225E+01       3.55249E+08       2.36997E+03      -6.74948E+01      -1.76721E+03      -5.23710E-02       1.13466E+04      -3.52790E+03       1.92955E+09
          2   0.50000E-01       4.43237E+06       1.41193E+01       6.78199E+00       1.78715E+02      -3.24185E+07      -1.32321E+03       1.32484E+01       4.43233E+06      -9.77308E-01       3.24172E+07      -1.66498E+02      -9.75160E+03       2.18375E+00      -3.29265E-01       2.66986E+04      -2.20758E+00      -1.25192E+01      -6.17931E-02       8.53889E+01       3.25314E+07      -1.46167E+00       3.55001E+08      -4.16637E+02      -2.08146E+04      -3.25320E+07      -1.38187E+01      -1.46066E+01      -1.42103E+01       3.55007E+08       2.35131E+03      -6.62797E+01      -1.74924E+03      -4.90251E-02       1.12296E+04      -3.49571E+03       1.92532E+09
          3   0.75000E-01       4.41779E+06       1.39957E+01       6.70709E+00       1.76595E+02      -3.23583E+07      -1.30886E+03       1.31500E+01       4.41775E+06      -9.65451E-01       3.23570E+07      -1.64539E+02      -9.65246E+03       2.17771E+00      -3.28496E-01       2.66914E+04      -2.20324E+00      -1.24882E+01      -6.07071E-02       8.47924E+01       3.24688E+07      -1.44545E+00       3.54598E+08      -4.13960E+02      -2.05914E+04      -3.24694E+07      -1.34292E+01      -1.44886E+01      -1.20310E+01       3.54604E+08       2.32032E+03      -6.42650E+01      -1.71942E+03      -4.34672E-02       1.10353E+04      -3.44227E+03       1.91829E+09
          4   0.10000E+00       4.39741E+06       1.38233E+01       6.60271E+00       1.73641E+02      -3.22741E+07      -1.28885E+03       1.30127E+01       4.39737E+06      -9.48929E-01       3.22728E+07      -1.61811E+02      -9.51428E+03       2.16926E+00      -3.27422E-01       2.66815E+04      -2.19716E+00      -1.24448E+01      -5.91917E-02       8.39601E+01       3.23812E+07      -1.42287E+00       3.54035E+08      -4.10227E+02      -2.02804E+04      -3.23819E+07      -1.28868E+01      -1.43242E+01      -8.99701E+00       3.54041E+08       2.27711E+03      -6.14659E+01      -1.67793E+03      -3.57244E-02       1.07650E+04      -3.36789E+03       1.90846E+09
          5   0.12500E+00       4.37129E+06       1.36029E+01       6.46933E+00       1.69869E+02      -3.21661E+07      -1.26327E+03       1.28370E+01       4.37126E+06      -9.27821E-01       3.21648E+07      -1.58327E+02      -9.33765E+03       2.15843E+00      -3.26044E-01       2.66687E+04      -2.18936E+00      -1.23892E+01      -5.72518E-02       8.28950E+01       3.22689E+07      -1.39401E+00       3.53312E+08      -4.05452E+02      -1.98828E+04      -3.22695E+07      -1.21941E+01      -1.41139E+01      -5.12482E+00       3.53318E+08       2.22191E+03      -5.79038E+01      -1.62503E+03      -2.58352E-02       1.04201E+04      -3.27299E+03       1.89585E+09
          6   0.15000E+00       4.33949E+06       1.33353E+01       6.30755E+00       1.65297E+02      -3.20343E+07      -1.23224E+03       1.26235E+01       4.33945E+06      -9.02228E-01       3.20330E+07      -1.54104E+02      -9.12335E+03       2.14522E+00      -3.24362E-01       2.66530E+04      -2.17983E+00      -1.23212E+01      -5.48937E-02       8.16004E+01       3.21319E+07      -1.35901E+00       3.52429E+08      -3.99653E+02      -1.94006E+04      -3.21325E+07      -1.13546E+01      -1.38588E+01      -4.35911E-01       3.52435E+08       2.15494E+03      -5.36063E+01      -1.56106E+03      -1.38482E-02       1.00029E+04      -3.15812E+03       1.88050E+09
          7   0.17500E+00       4.30206E+06       1.30217E+01       6.11811E+00       1.59948E+02      -3.18790E+07      -1.19590E+03       1.23728E+01       4.30203E+06      -8.72271E-01       3.18778E+07      -1.49163E+02      -8.87232E+03       2.12966E+00      -3.22381E-01       2.66345E+04      -2.16859E+00      -1.22411E+01      -5.21250E-02       8.00810E+01       3.19705E+07      -1.31805E+00       3.51388E+08      -3.92855E+02      -1.88358E+04      -3.19711E+07      -1.03728E+01      -1.35598E+01       5.04400E+00       3.51394E+08       2.07653E+03      -4.86059E+01      -1.48643E+03       1.77175E-04       9.51577E+03      -3.02395E+03       1.86245E+09
          8   0.20000E+00       4.25910E+06       1.26633E+01       5.90188E+00       1.53848E+02      -3.17003E+07      -1.15439E+03       1.20859E+01       4.25906E+06      -8.38092E-01       3.16992E+07      -1.43529E+02      -8.58565E+03       2.11176E+00      -3.20102E-01       2.66132E+04      -2.15564E+00      -1.21489E+01      -4.89547E-02       7.83417E+01       3.17848E+07      -1.27130E+00       3.50188E+08      -3.85082E+02      -1.81909E+04      -3.17854E+07      -9.25364E+00      -1.32182E+01       1.12845E+01       3.50194E+08       1.98702E+03      -4.29416E+01      -1.40160E+03       1.61716E-02       8.96164E+03      -2.87125E+03       1.84172E+09
          9   0.22500E+00       4.21069E+06       1.22616E+01       5.65985E+00       1.47029E+02      -3.14986E+07      -1.10790E+03       1.17638E+01       4.21065E+06      -7.99853E-01       3.14974E+07      -1.37229E+02      -8.26460E+03       2.09155E+00      -3.17529E-01       2.65891E+04      -2.14100E+00      -1.20447E+01      -4.53930E-02       7.63886E+01       3.15752E+07      -1.21900E+00       3.48832E+08      -3.76366E+02      -1.74689E+04      -3.15758E+07      -8.00279E+00      -1.28356E+01       1.82513E+01       3.48838E+08       1.88682E+03      -3.66568E+01      -1.30710E+03       3.40558E-02       8.34383E+03      -2.70090E+03       1.81836E+09
         10   0.25000E+00       4.15693E+06       1.18182E+01       5.39311E+00       1.39523E+02      -3.12740E+07      -1.05663E+03       1.14074E+01       4.15690E+06      -7.57735E-01       3.12729E+07      -1.30295E+02      -7.91057E+03       2.06907E+00      -3.14665E-01       2.65622E+04      -2.12467E+00      -1.19286E+01      -4.14515E-02       7.42281E+01       3.13420E+07      -1.16139E+00       3.47321E+08      -3.66739E+02      -1.66729E+04      -3.13426E+07      -6.62669E+00      -1.24134E+01       2.59058E+01       3.47326E+08       1.77638E+03      -2.98004E+01      -1.20354E+03       5.37413E-02       7.66605E+03      -2.51389E+03       1.79243E+09
         11   0.27500E+00       4.09795E+06       1.13350E+01       5.10289E+00       1.31368E+02      -3.10268E+07      -1.00081E+03       1.10180E+01       4.09792E+06      -7.11940E-01       3.10258E+07      -1.22760E+02      -7.52511E+03       2.04434E+00      -3.11514E-01       2.65324E+04      -2.10666E+00      -1.18007E+01      -3.71428E-02       7.18676E+01       3.10854E+07      -1.09874E+00       3.45654E+08      -3.56240E+02      -1.58065E+04      -3.10860E+07      -5.13240E+00      -1.19535E+01       3.42058E+01       3.45660E+08       1.65621E+03      -2.24257E+01      -1.09157E+03       7.51301E-02       6.93236E+03      -2.31129E+03       1.76398E+09
         12   0.30000E+00       4.03387E+06       1.08137E+01       4.79050E+00       1.22605E+02      -3.07575E+07      -9.40679E+02       1.05970E+01       4.03384E+06      -6.62683E-01       3.07565E+07      -1.14663E+02      -7.10989E+03       2.01740E+00      -3.08081E-01       2.64999E+04      -2.08699E+00      -1.16612E+01      -3.24808E-02       6.93150E+01       3.08059E+07      -1.03135E+00       3.43835E+08      -3.44908E+02      -1.48735E+04      -3.08064E+07      -3.52759E+00      -1.14579E+01       4.31051E+01       3.43841E+08       1.52686E+03      -1.45904E+01      -9.71906E+02       9.81162E-02       6.14717E+03      -2.09428E+03       1.73307E+09
         13   0.32500E+00       3.96483E+06       1.02567E+01       4.45738E+00       1.13277E+02      -3.04662E+07      -8.76498E+02       1.01456E+01       3.96480E+06      -6.10199E-01       3.04653E+07      -1.06043E+02      -6.66673E+03       1.98829E+00      -3.04369E-01       2.64646E+04      -2.06568E+00      -1.15101E+01      -2.74804E-02       6.65790E+01       3.05038E+07      -9.59525E-01       3.41865E+08      -3.32788E+02      -1.38781E+04      -3.05043E+07      -1.82052E+00      -1.09285E+01       5.25544E+01       3.41870E+08       1.38891E+03      -6.35616E+00      -8.45301E+02       1.22585E-01       5.31520E+03      -1.86411E+03       1.69978E+09
         14   0.35000E+00       3.89097E+06       9.66599E+00       4.10504E+00       1.03430E+02      -3.01535E+07      -8.08547E+02       9.66546E+00       3.89094E+06      -5.54737E-01       3.01527E+07      -9.69417E+01      -6.19756E+03       1.95705E+00      -3.00384E-01       2.64265E+04      -2.04273E+00      -1.13478E+01      -2.21576E-02       6.36686E+01       3.01795E+07      -8.83614E-01       3.39744E+08      -3.19925E+02      -1.28246E+04      -3.01801E+07      -1.99703E-02      -1.03677E+01       6.25014E+01       3.39750E+08       1.24298E+03       2.21185E+00      -7.12563E+02       1.48414E-01       4.44145E+03      -1.62212E+03       1.66416E+09
         15   0.37500E+00       3.81244E+06       9.04406E+00       3.73509E+00       9.31128E+01      -2.98197E+07      -7.37123E+02       9.15810E+00       3.81241E+06      -4.96562E-01       2.98189E+07      -8.74051E+01      -5.70441E+03       1.92373E+00      -2.96131E-01       2.63857E+04      -2.01817E+00      -1.11742E+01      -1.65295E-02       6.05937E+01       2.98336E+07      -8.03973E-01       3.37476E+08      -3.06368E+02      -1.17179E+04      -2.98341E+07       1.86476E+00      -9.77773E+00       7.28907E+01       3.37481E+08       1.08975E+03       1.10453E+01      -5.74541E+02       1.75475E-01       3.53119E+03      -1.36971E+03       1.62630E+09
         16   0.40000E+00       3.72942E+06       8.39335E+00       3.34920E+00       8.23764E+01      -2.94652E+07      -6.62534E+02       8.62516E+00       3.72940E+06      -4.35948E-01       2.94645E+07      -7.74796E+01      -5.18942E+03       1.88837E+00      -2.91616E-01       2.63421E+04      -1.99202E+00      -1.09896E+01      -1.06139E-02       5.73645E+01       2.94664E+07      -7.20976E-01       3.35061E+08      -2.92169E+02      -1.05627E+04      -2.94669E+07       3.82393E+00      -9.16116E+00       8.36643E+01       3.35067E+08       9.29912E+02       2.00733E+01      -4.32116E+02       2.03632E-01       2.58991E+03      -1.10835E+03       1.58628E+09
         17   0.42500E+00       3.64208E+06       7.71642E+00       2.94915E+00       7.12737E+01      -2.90906E+07      -5.85106E+02       8.06843E+00       3.64206E+06      -3.73185E-01       2.90899E+07      -6.72138E+01      -4.65484E+03       1.85103E+00      -2.86845E-01       2.62958E+04      -1.96429E+00      -1.07943E+01      -4.42956E-03       5.39916E+01       2.90786E+07      -6.35014E-01       3.32502E+08      -2.77382E+02      -9.36424E+03      -2.90790E+07       5.84740E+00      -8.52054E+00       9.47622E+01       3.32508E+08       7.64193E+02       2.92226E+01      -2.86202E+02       2.32744E-01       1.62330E+03      -8.39537E+02       1.54417E+09
         18   0.45000E+00       3.55060E+06       7.01597E+00       2.53675E+00       5.98593E+01      -2.86962E+07      -5.05174E+02       7.48968E+00       3.55058E+06      -3.08570E-01       2.86956E+07      -5.66582E+01      -4.10298E+03       1.81175E+00      -2.81823E-01       2.62469E+04      -1.93500E+00      -1.05883E+01       2.00400E-03       5.04864E+01       2.86705E+07      -5.46493E-01       3.29802E+08      -2.62062E+02      -8.12777E+03      -2.86709E+07       7.92464E+00      -7.85855E+00       1.06122E+02       3.29807E+08       5.93346E+02       3.84183E+01      -1.37739E+02       2.62664E-01       6.37217E+02      -5.64849E+02       1.50009E+09
         19   0.47500E+00       3.45517E+06       6.29471E+00       2.11388E+00       4.81894E+01      -2.82826E+07      -4.23084E+02       6.89079E+00       3.45515E+06      -2.42411E-01       2.82821E+07      -4.58641E+01      -3.53621E+03       1.77059E+00      -2.76559E-01       2.61952E+04      -1.90418E+00      -1.03719E+01       8.66653E-03       4.68604E+01       2.82428E+07      -4.55830E-01       3.26961E+08      -2.46267E+02      -6.85876E+03      -2.82432E+07       1.00449E+01      -7.17796E+00       1.17681E+02       3.26966E+08       4.18155E+02       4.75840E+01       1.23139E+01       2.93242E-01      -3.62349E+02      -2.85882E+02       1.45410E+09
         20   0.50000E+00       3.35599E+06       5.55548E+00       1.68245E+00       3.63212E+01      -2.78503E+07      -3.39193E+02       6.27365E+00       3.35597E+06      -1.75022E-01       2.78499E+07      -3.48844E+01      -2.95700E+03       1.72761E+00      -2.71057E-01       2.61408E+04      -1.87185E+00      -1.01454E+01       1.55372E-02       4.31256E+01       2.77961E+07      -3.63453E-01       3.23983E+08      -2.30054E+02      -5.56285E+03      -2.77965E+07       1.21970E+01      -6.48160E+00       1.29372E+02       3.23988E+08       2.39415E+02       5.66432E+01       1.62985E+02       3.24322E-01      -1.36932E+03      -4.25727E+00       1.40632E+09
         21   0.52500E+00       3.25326E+06       4.80110E+00       1.24445E+00       2.43128E+01      -2.73998E+07      -2.53864E+02       5.64026E+00       3.25324E+06      -1.06725E-01       2.73995E+07      -2.37723E+01      -2.36783E+03       1.68287E+00      -2.65326E-01       2.60838E+04      -1.83803E+00      -9.90884E+00       2.25945E-02       3.92943E+01       2.73310E+07      -2.69798E-01       3.20870E+08      -2.13484E+02      -4.24572E+03      -2.73314E+07       1.43697E+01      -5.77238E+00       1.41131E+02       3.20874E+08       5.79496E+01       6.55181E+01       3.13293E+02       3.55746E-01      -2.37756E+03       2.78378E+02       1.35683E+09
         22   0.55000E+00       3.14719E+06       4.03451E+00       8.01844E-01       1.22228E+01      -2.69318E+07      -1.67466E+02       4.99255E+00       3.14717E+06      -3.78444E-02       2.69316E+07      -1.25818E+01      -1.77125E+03       1.63643E+00      -2.59372E-01       2.60242E+04      -1.80274E+00      -9.66262E+00       2.98167E-02       3.53789E+01       2.68480E+07      -1.75306E-01       3.17624E+08      -1.96618E+02      -2.91320E+03      -2.68484E+07       1.65516E+01      -5.05323E+00       1.52891E+02       3.17629E+08      -1.25418E+02       7.41324E+01       4.62254E+02       3.87355E-01      -3.38089E+03       5.60377E+02       1.30575E+09
         23   0.57500E+00       3.03800E+06       3.25859E+00       3.56658E-01       1.10179E-01      -2.64468E+07      -8.03713E+01       4.33260E+00       3.03798E+06       3.12914E-02       2.64466E+07      -1.36701E+00      -1.16981E+03       1.58836E+00      -2.53204E-01       2.59619E+04      -1.76602E+00      -9.40693E+00       3.71813E-02       3.13922E+01       2.63479E+07      -8.04234E-02       3.14248E+08      -1.79517E+02      -1.57114E+03      -2.63482E+07       1.87311E+01      -4.32715E+00       1.64585E+02       3.14253E+08      -3.09842E+02       8.24095E+01       6.08887E+02       4.18985E-01      -4.37316E+03       8.40085E+02       1.25317E+09
         24   0.60000E+00       2.92590E+06       2.47633E+00      -8.90950E-02      -1.19664E+01      -2.59454E+07       7.04339E+00       3.66240E+00       2.92588E+06       1.00354E-01       2.59453E+07       9.81785E+00      -5.66081E+02       1.53872E+00      -2.46828E-01       2.58971E+04      -1.72789E+00      -9.14204E+00       4.46659E-02       2.73472E+01       2.58313E+07       1.44022E-02       3.10746E+08      -1.62242E+02      -2.25460E+02      -2.58316E+07       2.08967E+01      -3.59713E+00       1.76145E+02       3.10750E+08      -4.94483E+02       9.02749E+01       7.52223E+02       4.50476E-01      -5.34826E+03       1.11587E+03       1.19921E+09
         25   0.62500E+00       2.81111E+06       1.69061E+00      -5.33385E-01      -2.39482E+01      -2.54283E+07       9.44011E+01       2.98404E+00       2.81110E+06       1.69013E-01       2.54282E+07       2.09191E+01       3.73483E+01       1.48758E+00      -2.40254E-01       2.58297E+04      -1.68837E+00      -8.86821E+00       5.22475E-02       2.32568E+01       2.52988E+07       1.08723E-01       3.07118E+08      -1.44856E+02       1.11797E+03      -2.52991E+07       2.30368E+01      -2.86618E+00       1.87506E+02       3.07123E+08      -6.78485E+02       9.76552E+01       8.91304E+02       4.81663E-01      -6.30014E+03       1.38609E+03       1.14396E+09
         26   0.65000E+00       2.69387E+06       9.04410E-01      -9.74203E-01      -3.57778E+01      -2.48960E+07       1.81326E+02       2.29952E+00       2.69386E+06       2.36941E-01       2.48960E+07       3.18835E+01       6.37909E+02       1.43500E+00      -2.33488E-01       2.57597E+04      -1.64750E+00      -8.58572E+00       5.99033E-02       1.91343E+01       2.47513E+07       2.02093E-01       3.03370E+08      -1.27419E+02       2.45323E+03      -2.47515E+07       2.51400E+01      -2.13729E+00       1.98602E+02       3.03374E+08      -8.61010E+02       1.04480E+02       1.02520E+03       5.12384E-01      -7.22291E+03       1.64919E+03       1.08755E+09
         27   0.67500E+00       2.57441E+06       1.20551E-01      -1.40955E+00      -4.73979E+01      -2.43492E+07       2.67445E+02       1.61094E+00       2.57440E+06       3.03814E-01       2.43493E+07       4.26589E+01       1.23306E+03       1.38107E+00      -2.26539E-01       2.56872E+04      -1.60531E+00      -8.29484E+00       6.76102E-02       1.49928E+01       2.41893E+07       2.94071E-01       2.99502E+08      -1.09993E+02       3.77453E+03      -2.41895E+07       2.71948E+01      -1.41346E+00       2.09368E+02       2.99506E+08      -1.04121E+03       1.10681E+02       1.15299E+03       5.42479E-01      -8.11079E+03       1.90358E+03       1.03009E+09
         28   0.70000E+00       2.45295E+06      -6.58049E-01      -1.83746E+00      -5.87533E+01      -2.37886E+07       3.52388E+02       9.20279E-01       2.45294E+06       3.69313E-01       2.37888E+07       5.31938E+01       1.82027E+03       1.32584E+00      -2.19416E-01       2.56123E+04      -1.56181E+00      -7.99587E+00       7.53452E-02       1.08454E+01       2.36136E+07       3.84223E-01       2.95520E+08      -9.26388E+01       5.07605E+03      -2.36137E+07       2.91900E+01      -6.97631E-01       2.19741E+02       2.95524E+08      -1.21826E+03       1.16194E+02       1.27382E+03       5.71789E-01      -8.95820E+03       2.14777E+03       9.71681E+08
         29   0.72500E+00       2.32973E+06      -1.42865E+00      -2.25598E+00      -6.97894E+01      -2.32148E+07       4.35792E+02       2.29600E-01       2.32972E+06       4.33123E-01       2.32151E+07       6.34388E+01       2.39707E+03       1.26940E+00      -2.12126E-01       2.55348E+04      -1.51706E+00      -7.68910E+00       8.30853E-02       6.70518E+00       2.30249E+07       4.72122E-01       2.91425E+08      -7.54144E+01       6.35219E+03      -2.30251E+07       3.11147E+01       7.27956E-03       2.29659E+02       2.91428E+08      -1.39134E+03       1.20957E+02       1.38683E+03       6.00158E-01      -9.75978E+03       2.38030E+03       9.12445E+08
         30   0.75000E+00       2.20498E+06      -2.18846E+00      -2.66324E+00      -8.04544E+01      -2.26286E+07       5.17299E+02      -4.59153E-01       2.20497E+06       4.94941E-01       2.26289E+07       7.33454E+01       2.96103E+03       1.21181E+00      -2.04679E-01       2.54549E+04      -1.47108E+00      -7.37483E+00       9.08079E-02       2.58514E+00       2.24240E+07       5.57353E-01       2.87220E+08      -5.83788E+01       7.59736E+03      -2.24241E+07       3.29581E+01       6.98436E-01       2.39063E+02       2.87224E+08      -1.55964E+03       1.24914E+02       1.49123E+03       6.27433E-01      -1.05104E+04       2.59979E+03       8.52495E+08
         31   0.77500E+00       2.07894E+06      -2.93487E+00      -3.05740E+00      -9.06975E+01      -2.20306E+07       5.96561E+02      -1.14398E+00       2.07893E+06       5.54469E-01       2.20310E+07       8.28677E+01       3.50981E+03       1.15316E+00      -1.97082E-01       2.53726E+04      -1.42390E+00      -7.05339E+00       9.84904E-02      -1.50203E+00       2.18116E+07       6.39511E-01       2.82910E+08      -4.15879E+01       8.80622E+03      -2.18117E+07       3.47100E+01       1.37304E+00       2.47896E+02       2.82913E+08      -1.72238E+03       1.28012E+02       1.58628E+03       6.53468E-01      -1.12053E+04       2.80492E+03       7.91944E+08
[...]
       2372   0.59300E+02      -2.69941E+03       4.45944E+00      -3.78967E-02       6.48721E+01      -3.92448E+03       5.41916E+01       4.48325E+00      -2.74528E+03       5.99899E-03       3.27765E+03      -6.58551E+01       4.36824E+02      -5.33727E-03       2.31946E-04       4.10258E+01       1.85257E-03       3.50448E-02       1.73948E-03       7.84891E+00       1.21557E+04       7.73832E-03       6.36669E+05      -9.47370E+01       6.47740E+02      -1.22274E+04      -7.59834E+00       4.28359E-02      -9.29655E+01       6.37556E+05      -8.53083E+01       9.51483E+01       4.81296E+02       2.34751E-02       5.24599E+03      -1.17132E+03      -2.33456E+06
       2373   0.59325E+02      -2.52697E+03       3.87277E+00      -3.14138E-02       5.63433E+01      -6.46841E+03       4.66574E+01       3.89313E+00      -2.56845E+03       5.00752E-03       5.87598E+03      -5.72009E+01       3.77539E+02      -5.55376E-03       2.40252E-04       4.06657E+01       1.94676E-03       3.55591E-02       1.65424E-03       6.82363E+00       1.35252E+04       6.49855E-03       6.54269E+05      -8.22670E+01       5.59299E+02      -1.35907E+04      -6.61866E+00       3.36645E-02      -8.07517E+01       6.54701E+05      -7.29673E+01       8.25822E+01       4.17619E+02       2.02183E-02       4.54731E+03      -1.01517E+03      -2.26245E+06
       2374   0.59350E+02      -2.36288E+03       3.26459E+00      -2.48020E-02       4.74997E+01      -8.89856E+03       3.88593E+01       3.28123E+00      -2.39627E+03       3.99508E-03       8.42667E+03      -4.82266E+01       3.16127E+02      -5.76431E-03       2.49647E-04       4.02792E+01       2.04768E-03       3.60356E-02       1.56527E-03       5.75977E+00       1.47934E+04       5.23050E-03       6.70147E+05      -6.93372E+01       4.67767E+02      -1.48454E+04      -5.60222E+00       2.43085E-02      -6.80868E+01       6.70788E+05      -6.02238E+01       6.95493E+01       3.51574E+02       1.68613E-02       3.82301E+03      -8.53278E+02      -2.18754E+06
       2375   0.59375E+02      -2.19060E+03       2.63823E+00      -1.80787E-02       3.83901E+01      -1.14568E+04       3.08390E+01       2.65124E+00      -2.21917E+03       2.96851E-03       1.10437E+04      -3.89832E+01       2.52922E+02      -5.97868E-03       2.61581E-04       3.99454E+01       2.16989E-03       3.65789E-02       1.47340E-03       4.66375E+00       1.61011E+04       3.95041E-03       6.86884E+05      -5.60199E+01       3.73604E+02      -1.61472E+04      -4.55482E+00       1.47971E-02      -5.50444E+01       6.87073E+05      -4.71210E+01       5.61204E+01       2.83516E+02       1.34236E-02       3.07716E+03      -6.86582E+02      -2.11433E+06
       2376   0.59400E+02      -2.02784E+03       1.99728E+00      -1.12902E-02       2.90664E+01      -1.38837E+04       2.26417E+01       2.00644E+00      -2.04800E+03       1.93074E-03       1.35953E+04      -2.95218E+01       1.88283E+02      -6.18576E-03       2.74289E-04       3.95867E+01       2.29604E-03       3.70789E-02       1.37888E-03       3.54133E+00       1.73039E+04       2.65401E-03       7.01863E+05      -4.23899E+01       2.77371E+02      -1.73355E+04      -3.48230E+00       5.19124E-03      -4.16949E+01       7.02259E+05      -3.37552E+01       4.23736E+01       2.13844E+02       9.92149E-03       2.31391E+03      -5.15987E+02      -2.03893E+06
       2377   0.59425E+02      -1.85806E+03       1.34523E+00      -4.45563E-03       1.95799E+01      -1.64222E+04       1.43114E+01       1.35066E+00      -1.87309E+03       8.88693E-04       1.61976E+04      -1.98961E+01       1.22559E+02      -6.39536E-03       2.89189E-04       3.92794E+01       2.44068E-03       3.76393E-02       1.28256E-03       2.39925E+00       1.85429E+04       1.35774E-03       7.17683E+05      -2.85234E+01       1.79558E+02      -1.85685E+04      -2.39077E+00      -4.47791E-03      -2.81157E+01       7.17617E+05      -2.01747E+01       2.83832E+01       1.42933E+02       6.37549E-03       1.53754E+03      -3.42470E+02      -1.96597E+06
       2378   0.59450E+02      -1.69899E+03       6.85827E-01       2.37935E-03       9.98478E+00      -1.88126E+04       5.89499E+00       6.87351E-01      -1.70549E+03      -1.54657E-04       1.87136E+04      -1.01595E+01       5.61239E+01      -6.59648E-03       3.04489E-04       3.89467E+01       2.58626E-03       3.81515E-02       1.18470E-03       1.24351E+00       1.96719E+04       5.71632E-05       7.31696E+05      -1.44982E+01       8.07447E+01      -1.96830E+04      -1.28631E+00      -1.41492E-02      -1.43804E+01       7.31805E+05      -6.47693E+00       1.42308E+01       7.11981E+01       2.80233E-03       7.52369E+02      -1.66977E+02      -1.89137E+06
       2379   0.59475E+02      -1.53382E+03       2.26678E-02       9.19483E-03       3.34002E-01      -2.12946E+04      -2.56207E+00       2.04459E-02      -1.53500E+03      -1.19247E-03       2.12619E+04      -3.67176E-01      -1.06627E+01      -6.79901E-03       3.21652E-04       3.86690E+01       2.74751E-03       3.87183E-02       1.08617E-03       8.10498E-02       2.08357E+04      -1.23116E-03       7.46516E+05      -3.92913E-01      -1.85630E+01      -2.08402E+04      -1.75209E-01      -2.37920E-02      -5.68158E-01       7.46193E+05       7.28732E+00      -6.94010E-03      -9.73060E-01      -7.77159E-04      -3.71923E+01       9.48805E+00      -1.81968E+06
       2380   0.59500E+02      -1.38059E+03      -6.40452E-01       1.59454E-02      -9.31766E+00      -2.36100E+04      -1.10124E+01      -6.46556E-01      -1.37344E+03      -2.22173E-03       2.37047E+04       9.42667E+00      -7.74194E+01      -6.99188E-03       3.38834E-04       3.83642E+01       2.90639E-03       3.92306E-02       9.87268E-04      -1.08202E+00       2.18871E+04      -2.51188E-03       7.59494E+05       1.37135E+01      -1.17779E+02      -2.18761E+04       9.36327E-01      -3.33447E-02       1.32460E+01       7.59371E+05       2.10198E+01      -1.42473E+01      -7.31599E+01      -4.34605E-03      -8.26756E+02       1.85962E+02      -1.74697E+06
       2381   0.59525E+02      -1.22238E+03      -1.29990E+00       2.26119E-02      -1.89167E+01      -2.60021E+04      -1.94101E+01      -1.30969E+00      -1.20971E+03      -3.23571E-03       2.61617E+04       1.91664E+01      -1.43787E+02      -7.18488E-03       3.57476E-04       3.81139E+01       3.07805E-03       3.97939E-02       8.88838E-04      -2.23871E+00       2.29667E+04      -3.76840E-03       7.73245E+05       2.77419E+01      -2.16394E+02      -2.29501E+04       2.04200E+00      -4.27773E-02       2.69821E+01       7.72663E+05       3.46686E+01      -2.84129E+01      -1.44970E+02      -7.88353E-03      -1.61188E+03       3.61435E+02      -1.67779E+06
       2382   0.59550E+02      -1.07723E+03      -1.95192E+00       2.91498E-02      -2.84088E+01      -2.82112E+04      -2.77081E+01      -1.96549E+00      -1.05621E+03      -4.23155E-03       2.84962E+04       2.87982E+01      -2.09385E+02      -7.36705E-03       3.75799E-04       3.78375E+01       3.24422E-03       4.02966E-02       7.91186E-04      -3.38296E+00       2.39326E+04      -5.00562E-03       7.85121E+05       4.16139E+01      -3.13825E+02      -2.39019E+04       3.13562E+00      -5.20300E-02       4.05661E+01       7.84739E+05       4.81368E+01      -4.24216E+01      -2.15988E+02      -1.13728E-02      -2.38821E+03       5.34950E+02      -1.60804E+06
       2383   0.59575E+02      -9.28043E+02      -2.59293E+00       3.55403E-02      -3.77412E+01      -3.04753E+04      -3.58614E+01      -2.61005E+00      -9.01901E+02      -5.20262E-03       3.08229E+04       3.82672E+01      -2.73860E+02      -7.54819E-03       3.95173E-04       3.76138E+01       3.42002E-03       4.08430E-02       6.95151E-04      -4.50790E+00       2.49229E+04      -6.20718E-03       7.97738E+05       5.52516E+01      -4.09573E+02      -2.48854E+04       4.21099E+00      -6.10726E-02       5.39191E+01       7.96895E+05       6.13740E+01      -5.61971E+01      -2.85825E+02      -1.47937E-02      -3.15137E+03       7.05513E+02      -1.54258E+06
       2384   0.59600E+02      -7.92533E+02      -3.21927E+00       4.17410E-02      -4.68612E+01      -3.25410E+04      -4.38246E+01      -3.24001E+00      -7.58400E+02      -6.14632E-03       3.30086E+04       4.75214E+01      -3.36844E+02      -7.71718E-03       4.13869E-04       3.73667E+01       3.58724E-03       4.13237E-02       6.01019E-04      -5.60760E+00       2.57963E+04      -7.37803E-03       8.08441E+05       6.85789E+01      -5.03071E+02      -2.57451E+04       5.26209E+00      -6.98490E-02       6.69691E+01       8.07813E+05       7.42854E+01      -6.96597E+01      -3.54078E+02      -1.81299E-02      -3.89712E+03       8.72194E+02      -1.47707E+06
       2385   0.59625E+02      -6.54863E+02      -3.82752E+00       4.77344E-02      -5.57181E+01      -3.46469E+04      -5.15538E+01      -3.85159E+00      -6.15888E+02      -7.05623E-03       3.51742E+04       5.65079E+01      -3.97996E+02      -7.88434E-03       4.33223E-04       3.71698E+01       3.76112E-03       4.18426E-02       5.09622E-04      -6.67551E+00       2.66922E+04      -8.50246E-03       8.19860E+05       8.15208E+01      -5.93840E+02      -2.66350E+04       6.28299E+00      -7.83310E-02       7.96404E+01       8.18772E+05       8.68226E+01      -8.27361E+01      -4.20374E+02      -2.13619E-02      -4.62127E+03       1.03404E+03      -1.41623E+06
       2386   0.59650E+02      -5.31840E+02      -4.41420E+00       5.34802E-02      -6.42617E+01      -3.65380E+04      -5.90063E+01      -4.44163E+00      -4.84907E+02      -7.93004E-03       3.71831E+04       6.51772E+01      -4.56967E+02      -8.03813E-03       4.51533E-04       3.69508E+01       3.92344E-03       4.22904E-02       4.21200E-04      -7.70597E+00       2.74705E+04      -9.58552E-03       8.29372E+05       9.40051E+01      -6.81342E+02      -2.73971E+04       7.26795E+00      -8.64644E-02       9.18647E+01       8.28484E+05       9.88955E+01      -9.53504E+01      -4.84329E+02      -2.44747E-02      -5.31980E+03       1.19016E+03      -1.35589E+06
       2387   0.59675E+02      -4.06656E+02      -4.97610E+00       5.89633E-02      -7.24448E+01      -3.84526E+04      -6.61411E+01      -5.00659E+00      -3.55807E+02      -8.76184E-03       3.91472E+04       7.34799E+01      -5.13439E+02      -8.18900E-03       4.70184E-04       3.67809E+01       4.08939E-03       4.27717E-02       3.36566E-04      -8.69284E+00       2.82641E+04      -1.06122E-02       8.39490E+05       1.05962E+02      -7.65130E+02      -2.81887E+04       8.21142E+00      -9.42246E-02       1.03571E+02       8.38178E+05       1.10460E+02      -1.07434E+02      -5.45594E+02      -2.74497E-02      -5.98877E+03       1.33968E+03      -1.30079E+06
       2388   0.59700E+02      -2.96960E+02      -5.51000E+00       6.41455E-02      -8.02210E+01      -4.01391E+04      -7.29185E+01      -5.54355E+00      -2.39147E+02      -9.54959E-03       4.09412E+04       8.13704E+01      -5.67087E+02      -8.32560E-03       4.87442E-04       3.65892E+01       4.24103E-03       4.31763E-02       2.55907E-04      -9.63094E+00       2.89382E+04      -1.15878E-02       8.47694E+05       1.17324E+02      -8.44705E+02      -2.88495E+04       9.10811E+00      -1.01560E-01       1.14696E+02       8.46616E+05       1.21431E+02      -1.18917E+02      -6.03816E+02      -3.02732E-02      -6.62447E+03       1.48176E+03      -1.24655E+06
       2389   0.59725E+02      -1.86983E+02      -6.01301E+00       6.90146E-02      -8.75471E+01      -4.18337E+04      -7.93014E+01      -6.04927E+00      -1.25354E+02      -1.02876E-02       4.26791E+04       8.88036E+01      -6.17625E+02      -8.45824E-03       5.04691E-04       3.64476E+01       4.39381E-03       4.36103E-02       1.80000E-04      -1.05146E+01       2.96295E+04      -1.24977E-02       8.56525E+05       1.28028E+02      -9.19664E+02      -2.95375E+04       9.95294E+00      -1.08453E-01       1.25176E+02       8.55011E+05       1.31771E+02      -1.29737E+02      -6.58675E+02      -3.29286E-02      -7.22331E+03       1.61560E+03      -1.19809E+06
       2390   0.59750E+02      -9.32267E+01      -6.48221E+00       7.35354E-02      -9.43817E+01      -4.32862E+04      -8.52543E+01      -6.52116E+00      -2.51733E+01      -1.09745E-02       4.42317E+04       9.57386E+01      -6.64760E+02      -8.57585E-03       5.20248E-04       3.62833E+01       4.52972E-03       4.39632E-02       1.08980E-04      -1.13392E+01       3.01943E+04      -1.33480E-02       8.63369E+05       1.38014E+02      -9.89557E+02      -3.00919E+04       1.07412E+01      -1.14851E-01       1.34954E+02       8.62099E+05       1.41402E+02      -1.39831E+02      -7.09855E+02      -3.54035E-02      -7.78199E+03       1.74047E+03      -1.15098E+06
       2391   0.59775E+02       1.05708E+00      -6.91508E+00       7.76981E-02      -1.00687E+02      -4.47373E+04      -9.07444E+01      -6.95634E+00       7.20592E+01      -1.16051E-02       4.57139E+04       1.02136E+02      -7.08241E+02      -8.68844E-03       5.35502E-04       3.61699E+01       4.66424E-03       4.43394E-02       4.35589E-05      -1.20998E+01       3.07800E+04      -1.41245E-02       8.70870E+05       1.47226E+02      -1.05403E+03      -3.06738E+04       1.14684E+01      -1.20745E-01       1.43972E+02       8.69178E+05       1.50291E+02      -1.49144E+02      -7.57076E+02      -3.76831E-02      -8.29733E+03       1.85564E+03      -1.10984E+06
       2392   0.59800E+02       7.80800E+01      -7.30911E+00       8.14718E-02      -1.06427E+02      -4.59315E+04      -9.57414E+01      -7.35263E+00       1.54667E+02      -1.21783E-02       4.69999E+04       1.07960E+02      -7.47815E+02      -8.78530E-03       5.48795E-04       3.60333E+01       4.77956E-03       4.46313E-02      -1.61775E-05      -1.27925E+01       3.12388E+04      -1.48340E-02       8.76366E+05       1.55612E+02      -1.11270E+03      -3.11211E+04       1.21305E+01      -1.26087E-01       1.52184E+02       8.74906E+05       1.58371E+02      -1.57622E+02      -8.00065E+02      -3.97571E-02      -8.76650E+03       1.96051E+03      -1.07064E+06
       2393   0.59825E+02       1.54777E+02      -7.66218E+00       8.48499E-02      -1.11570E+02      -4.71177E+04      -1.00218E+02      -7.70756E+00       2.33566E+02      -1.26898E-02       4.82031E+04       1.13178E+02      -7.83274E+02      -8.87642E-03       5.61536E-04       3.59478E+01       4.89184E-03       4.49431E-02      -6.95932E-05      -1.34130E+01       3.17088E+04      -1.54631E-02       8.82448E+05       1.63126E+02      -1.16527E+03      -3.15908E+04       1.27238E+01      -1.30870E-01       1.59539E+02       8.80610E+05       1.65617E+02      -1.65220E+02      -8.38588E+02      -4.16129E-02      -9.18684E+03       2.05445E+03      -1.03746E+06
       2394   0.59850E+02       2.13973E+02      -7.97223E+00       8.78054E-02      -1.16087E+02      -4.80358E+04      -1.04148E+02      -8.01940E+00       2.97813E+02      -1.31388E-02       4.91998E+04       1.17762E+02      -8.14409E+02      -8.95111E-03       5.72065E-04       3.58383E+01       4.98301E-03       4.51652E-02      -1.16673E-04      -1.39582E+01       3.20563E+04      -1.60188E-02       8.86525E+05       1.69726E+02      -1.21142E+03      -3.19266E+04       1.32449E+01      -1.35055E-01       1.66001E+02       8.84954E+05       1.71970E+02      -1.71892E+02      -8.72420E+02      -4.32424E-02      -9.55603E+03       2.13697E+03      -1.00652E+06
       2395   0.59875E+02       2.72034E+02      -8.23761E+00       9.03350E-02      -1.19953E+02      -4.89372E+04      -1.07512E+02      -8.28615E+00       3.56833E+02      -1.35214E-02       5.01061E+04       1.21684E+02      -8.41057E+02      -9.01975E-03       5.81880E-04       3.57813E+01       5.06926E-03       4.54080E-02      -1.56834E-04      -1.44245E+01       3.24103E+04      -1.64889E-02       8.91192E+05       1.75373E+02      -1.25092E+03      -3.22829E+04       1.36909E+01      -1.38636E-01       1.71530E+02       8.89242E+05       1.77414E+02      -1.77603E+02      -9.01379E+02      -4.46352E-02      -9.87196E+03       2.20757E+03      -9.82098E+05
       2396   0.59900E+02       3.12320E+02      -8.45675E+00       9.24160E-02      -1.23146E+02      -4.95616E+04      -1.10290E+02      -8.50659E+00       4.00853E+02      -1.38377E-02       5.07955E+04       1.24924E+02      -8.63061E+02      -9.07135E-03       5.89307E-04       3.57008E+01       5.13285E-03       4.55570E-02      -1.90153E-04      -1.48100E+01       3.26400E+04      -1.68808E-02       8.93829E+05       1.80038E+02      -1.28353E+03      -3.25018E+04       1.40592E+01      -1.41584E-01       1.76098E+02       8.92163E+05       1.81901E+02      -1.82319E+02      -9.25296E+02      -4.57856E-02      -1.01329E+04       2.26590E+03      -9.60102E+05
       2397   0.59925E+02       3.51175E+02      -8.62852E+00       9.40503E-02      -1.25648E+02      -5.01665E+04      -1.12466E+02      -8.67921E+00       4.39996E+02      -1.40846E-02       5.13923E+04       1.27463E+02      -8.80308E+02      -9.11640E-03       5.95844E-04       3.56700E+01       5.19073E-03       4.57238E-02      -2.16142E-04      -1.51118E+01       3.28803E+04      -1.71833E-02       8.97047E+05       1.83693E+02      -1.30909E+03      -3.27468E+04       1.43479E+01      -1.43897E-01       1.79676E+02       8.95021E+05       1.85424E+02      -1.86016E+02      -9.44040E+02      -4.66861E-02      -1.03374E+04       2.31160E+03      -9.44692E+05
       2398   0.59950E+02       3.71627E+02      -8.75186E+00       9.52179E-02      -1.27445E+02      -5.04917E+04      -1.14029E+02      -8.80332E+00       4.63573E+02      -1.42624E-02       5.17666E+04       1.29286E+02      -8.92692E+02      -9.14429E-03       5.99899E-04       3.56150E+01       5.22491E-03       4.57975E-02      -2.34938E-04      -1.53288E+01       3.29916E+04      -1.74045E-02       8.98226E+05       1.86319E+02      -1.32744E+03      -3.28499E+04       1.45553E+01      -1.45549E-01       1.82247E+02       8.96519E+05       1.87947E+02      -1.88671E+02      -9.57503E+02      -4.73334E-02      -1.04843E+04       2.34443E+03      -9.31813E+05
       2399   0.59975E+02       3.91027E+02      -8.82618E+00       9.59256E-02      -1.28528E+02      -5.07861E+04      -1.14971E+02      -8.87796E+00       4.81886E+02      -1.43688E-02       5.20407E+04       1.30384E+02      -9.00154E+02      -9.16508E-03       6.02944E-04       3.56144E+01       5.25245E-03       4.58835E-02      -2.46146E-04      -1.54593E+01       3.31161E+04      -1.75337E-02       8.99984E+05       1.87900E+02      -1.33850E+03      -3.29793E+04       1.46802E+01      -1.46552E-01       1.83795E+02       8.97918E+05       1.89474E+02      -1.90271E+02      -9.65613E+02      -4.77225E-02      -1.05727E+04       2.36420E+03      -9.25830E+05
       2400   0.60000E+02       3.91253E+02      -8.85097E+00       9.61580E-02      -1.28889E+02      -5.07989E+04      -1.15285E+02      -8.90297E+00       4.84053E+02      -1.44049E-02       5.20875E+04       1.30751E+02      -9.02643E+02      -9.16870E-03       6.03472E-04       3.55883E+01       5.25604E-03       4.58769E-02      -2.49987E-04      -1.55031E+01       3.31110E+04      -1.75800E-02       8.99700E+05       1.88429E+02      -1.34219E+03      -3.29677E+04       1.47219E+01      -1.46880E-01       1.84312E+02       8.97952E+05       1.89978E+02      -1.90804E+02      -9.68320E+02      -4.78530E-02      -1.06023E+04       2.37081E+03      -9.22310E+05

This summary file was closed on 09-Jun-2023 at 11:01:11.

