
This file was generated by AeroDyn14 on 09-Jun-2023 at 11:01:11.

Inputs read in from the AeroDyn input file:
DTU 10.0 MW onshore baseline aerodynamic input properties;Compatible with AeroDyn v14

           SI  SysUnits       - Units for input and output         
       STEADY  StallMod       - Dynamic stall model                 [NO Dynamic stall]
       USE_CM  UseCm          - Aerodynamic pitching moment model   [Pitching Moments calculated]
        EQUIL  InfModel       - Inflow model                        [Equilibrium]
        SWIRL  IndModel       - Induction factor model              [Normal and Radial flow induction factors calculated]
   5.0000E-03  AToler         - Convergence tolerance for induction factor
        PRAND  TLModel        - Tip-loss model                      [Prandtl model]
        PRAND  HLModel        - Hub-loss model                      [Prandtl model]
   1.1900E+02  HH             - Wind reference (hub) height, m
   0.0000E+00  TwrShad        - Tower shadow centerline velocity deficit
   9.9999E+03  ShadHWid       - Tower shadow half width, m
   9.9999E+03  T_Shad_Refpt   - Tower shadow reference point, m
   1.2250E+00  AirDens        - Air density, kg/m^3
   1.4640E-05  KinVisc        - Kinematic air viscosity, m^2/sec
   2.5000E-02  DTAERO         - Time interval for aerodynamic calculations, sec
            6  NumFoil        - Number of airfoil files used. Files listed below:
"C:\DATI\Floatech\WP4\FOWT_framework\sims\mod_input_files_PROVA\.\AeroData\Cylinder.dat"
"C:\DATI\Floatech\WP4\FOWT_framework\sims\mod_input_files_PROVA\.\AeroData\FFA_W3_600.dat"
"C:\DATI\Floatech\WP4\FOWT_framework\sims\mod_input_files_PROVA\.\AeroData\FFA_W3_480.dat"
"C:\DATI\Floatech\WP4\FOWT_framework\sims\mod_input_files_PROVA\.\AeroData\FFA_W3_360.dat"
"C:\DATI\Floatech\WP4\FOWT_framework\sims\mod_input_files_PROVA\.\AeroData\FFA_W3_301.dat"
"C:\DATI\Floatech\WP4\FOWT_framework\sims\mod_input_files_PROVA\.\AeroData\FFA_W3_241.dat"
           37  BldNodes       - Number of blade elements per blade

     Element     RELM       Twist       DR        Chord      NFoil     Print?    Tip-loss   Hub-loss 
       (-)        (m)       (deg)       (m)        (m)        (-)     (Yes/No)   constant   constant 
   ---------- ---------- ---------- ---------- ---------- ---------- ---------- ---------- ----------
            1    4.80000   14.49106    4.00000    5.38000          1         No   26.37500    1.07143
            2    7.51200   14.42421    1.42400    5.42295          1         No   16.31150    2.52429
            3    9.11900   14.26041    1.79000    5.50317          1         No   13.17266    3.38518
            4   10.27500   14.04389    0.52200    5.57701          2         No   11.52190    4.00446
            5   11.65800   13.58134    2.24400    5.67887          2         No    9.97710    4.74536
            6   13.25800   12.90876    0.95600    5.80214          2         No    8.59202    5.60250
            7   15.06800   11.90899    2.66400    5.93702          2         No    7.37975    6.57214
            8   17.07500   10.68036    1.35000    6.06369          3         No    6.33602    7.64732
            9   19.26700    9.47960    3.03400    6.15712          3         No    5.44452    8.82161
           10   21.63300    8.38510    1.69800    6.20127          4         No    4.68499   10.08911
           11   24.15600    7.60694    3.34800    6.19187          4         No    4.03900   11.44071
           12   26.82300    6.95797    1.98600    6.12895          4         No    3.48826   12.86946
           13   29.61700    6.36922    3.60200    6.01388          5         No    3.01768   14.36625
           14   32.52100    5.80915    2.20600    5.85419          5         No    2.61426   15.92197
           15   35.51900    5.25483    3.79000    5.65799          5         No    2.26700   17.52804
           16   38.59100    4.69118    2.35400    5.43481          5         No    1.96713   19.17375
           17   41.72000    4.08789    3.90400    5.19013          6         No    1.70709   20.85000
           18   44.88600    3.44539    2.42800    4.92937          6         No    1.48088   22.54607
           19   48.07200    2.79028    3.94400    4.65837          6         No    1.28332   24.25286
           20   51.25700    2.12513    2.42600    4.38353          6         No    1.11038   25.95911
           21   54.42300    1.48171    3.90600    4.11085          6         No    0.95852   27.65518
           22   57.55000    0.86834    2.34800    3.84493          6         No    0.82493   29.33036
           23   60.62000    0.29472    3.79200    3.58865          6         No    0.70719   30.97500
           24   63.61500   -0.22119    2.19800    3.34462          6         No    0.60328   32.57947
           25   66.51600   -0.70484    3.60400    3.11534          6         No    0.51155   34.13357
           26   69.30600   -1.12053    1.97600    2.90284          6         No    0.43057   35.62822
           27   71.96800   -1.51714    3.34800    2.70750          6         No    0.35916   37.05429
           28   74.48700   -1.87601    1.69000    2.52916          6         No    0.29629   38.40376
           29   76.84700   -2.21046    3.03000    2.36496          6         No    0.24112   39.66804
           30   79.03400   -2.52039    1.34400    2.20011          6         No    0.19294   40.83965
           31   81.03400   -2.79797    2.65600    2.01824          6         No    0.15116   41.91107
           32   82.83700   -3.03281    0.95000    1.81189          6         No    0.11522   42.87697
           33   84.43100   -3.22096    2.23800    1.53630          6         No    0.08473   43.73090
           34   85.80600   -3.36962    0.51200    1.13840          6         No    0.05933   44.46751
           35   86.95500   -3.42796    1.78600    1.13840          6         No    0.03873   45.08304
           36   87.87000   -3.42796    0.04400    1.13840          6         No    0.02270   45.57322
           37   88.54600   -3.42796    1.30800    1.13840          6         No    0.01108   45.93536


 Rotor radius     =  89.115 m
 Hub radius       =   2.797 m
 Number of blades =   3
