
This summary information was generated by ElastoDyn on 09-Jun-2023 at 11:01:11.


Turbine features:

            Upwind, 3-bladed rotor with rigid hub.
            The model has 20 of 24 DOFs active (enabled) at start-up.
 Enabled    Platform horizontal surge translation DOF 
 Enabled    Platform horizontal sway translation DOF 
 Enabled    Platform vertical heave translation DOF 
 Enabled    Platform roll tilt rotation DOF 
 Enabled    Platform pitch tilt rotation DOF 
 Enabled    Platform yaw rotation DOF 
 Enabled    1st tower fore-aft bending mode DOF 
 Enabled    1st tower side-to-side bending mode DOF 
 Enabled    2nd tower fore-aft bending mode DOF 
 Enabled    2nd tower side-to-side bending mode DOF 
 Enabled    Nacelle yaw DOF 
 Disabled   Rotor-furl DOF 
 Disabled   Variable speed generator DOF 
 Disabled   Drivetrain rotational-flexibility DOF 
 Disabled   Tail-furl DOF 
 Enabled    1st flapwise bending-mode DOF of blade 1 
 Enabled    1st edgewise bending-mode DOF of blade 1 
 Enabled    2nd flapwise bending-mode DOF of blade 1 
 Enabled    1st flapwise bending-mode DOF of blade 2 
 Enabled    1st edgewise bending-mode DOF of blade 2 
 Enabled    2nd flapwise bending-mode DOF of blade 2 
 Enabled    1st flapwise bending-mode DOF of blade 3 
 Enabled    1st edgewise bending-mode DOF of blade 3 
 Enabled    2nd flapwise bending-mode DOF of blade 3 


Time steps:

    Structural            (s)        0.02500000


Some calculated parameters:

    Hub-Height            (m)           118.999
    Flexible Tower Length (m)            90.630
    Flexible Blade Length (m)            86.400


Rotor mass properties:

    Rotor Mass            (kg)       230598.578
    Rotor Inertia         (kg-m^2)156243120.000
                                        Blade 1      Blade 2      Blade 3
                                        -------      -------      -------
    Mass                  (kg)        41692.855    41692.855    41692.855
    Second Mass Moment    (kg-m^2) 45639992.000 45639992.000 45639992.000
    First Mass Moment     (kg-m)    1090124.250  1090124.250  1090124.250
    Center of Mass        (m)            26.147       26.147       26.147


Additional mass properties:

    Tower-top Mass        (kg)       676634.812
    Tower Mass            (kg)       436278.000
    Platform Mass         (kg)     28228630.000
    Mass Incl. Platform   (kg)     29341542.000


Interpolated tower properties:

Node  TwFract   HNodes  DHNodes  TMassDen    FAStiff    SSStiff
 (-)      (-)      (m)      (m)    (kg/m)     (Nm^2)     (Nm^2)
   1    0.010    0.871    1.743  6911.900  1.248E+12  1.248E+12
   2    0.029    2.614    1.743  6821.437  1.218E+12  1.218E+12
   3    0.048    4.357    1.743  6729.712  1.188E+12  1.188E+12
   4    0.067    6.100    1.743  6638.586  1.159E+12  1.159E+12
   5    0.087    7.843    1.743  6548.059  1.131E+12  1.131E+12
   6    0.106    9.586    1.743  6458.128  1.103E+12  1.103E+12
   7    0.125   11.329    1.743  6368.796  1.076E+12  1.076E+12
   8    0.144   13.072    1.743  6280.062  1.049E+12  1.049E+12
   9    0.163   14.815    1.743  6191.926  1.022E+12  1.022E+12
  10    0.183   16.557    1.743  6104.388  9.965E+11  9.965E+11
  11    0.202   18.300    1.743  6017.448  9.711E+11  9.711E+11
  12    0.221   20.043    1.743  5931.105  9.462E+11  9.462E+11
  13    0.240   21.786    1.743  5845.361  9.217E+11  9.217E+11
  14    0.260   23.529    1.743  5760.215  8.977E+11  8.977E+11
  15    0.279   25.272    1.743  5675.667  8.742E+11  8.742E+11
  16    0.298   27.015    1.743  5591.716  8.511E+11  8.511E+11
  17    0.317   28.758    1.743  5508.364  8.285E+11  8.285E+11
  18    0.337   30.500    1.743  5425.610  8.064E+11  8.064E+11
  19    0.356   32.243    1.743  5343.454  7.847E+11  7.847E+11
  20    0.375   33.986    1.743  5261.895  7.634E+11  7.634E+11
  21    0.394   35.729    1.743  5180.935  7.425E+11  7.425E+11
  22    0.413   37.472    1.743  5100.572  7.221E+11  7.221E+11
  23    0.433   39.215    1.743  5020.808  7.021E+11  7.021E+11
  24    0.452   40.958    1.743  4941.641  6.825E+11  6.825E+11
  25    0.471   42.701    1.743  4863.072  6.633E+11  6.633E+11
  26    0.490   44.444    1.743  4785.102  6.445E+11  6.445E+11
  27    0.510   46.186    1.743  4707.741  6.261E+11  6.261E+11
  28    0.529   47.929    1.743  4630.991  6.081E+11  6.081E+11
  29    0.548   49.672    1.743  4554.840  5.905E+11  5.905E+11
  30    0.567   51.415    1.743  4479.286  5.732E+11  5.732E+11
  31    0.587   53.158    1.743  4404.330  5.564E+11  5.564E+11
  32    0.606   54.901    1.743  4329.973  5.399E+11  5.399E+11
  33    0.625   56.644    1.743  4256.212  5.238E+11  5.238E+11
  34    0.644   58.387    1.743  4183.050  5.080E+11  5.080E+11
  35    0.663   60.130    1.743  4110.487  4.926E+11  4.926E+11
  36    0.683   61.872    1.743  4038.521  4.775E+11  4.775E+11
  37    0.702   63.615    1.743  3967.153  4.628E+11  4.628E+11
  38    0.721   65.358    1.743  3896.383  4.484E+11  4.484E+11
  39    0.740   67.101    1.743  3826.211  4.343E+11  4.343E+11
  40    0.760   68.844    1.743  3756.637  4.206E+11  4.206E+11
  41    0.779   70.587    1.743  3687.661  4.072E+11  4.072E+11
  42    0.798   72.330    1.743  3619.283  3.941E+11  3.941E+11
  43    0.817   74.073    1.743  3551.503  3.813E+11  3.813E+11
  44    0.837   75.815    1.743  3484.321  3.688E+11  3.688E+11
  45    0.856   77.558    1.743  3417.737  3.566E+11  3.566E+11
  46    0.875   79.301    1.743  3351.751  3.447E+11  3.447E+11
  47    0.894   81.044    1.743  3286.363  3.331E+11  3.331E+11
  48    0.913   82.787    1.743  3221.573  3.218E+11  3.218E+11
  49    0.933   84.530    1.743  3157.381  3.108E+11  3.108E+11
  50    0.952   86.273    1.743  3093.787  3.001E+11  3.001E+11
  51    0.971   88.016    1.743  3030.790  2.896E+11  2.896E+11
  52    0.990   89.759    1.743  2969.627  2.794E+11  2.794E+11


Interpolated blade 1 properties:

Node  BlFract   RNodes  DRNodes PitchAxis  StrcTwst  BMassDen    FlpStff    EdgStff
 (-)      (-)      (m)      (m)       (-)     (deg)    (kg/m)     (Nm^2)     (Nm^2)
   1    0.023    4.800    4.000     0.000     0.000  1191.584  6.217E+10  6.112E+10
   2    0.055    7.512    1.424     0.001     0.000  1185.261  6.140E+10  5.942E+10
   3    0.073    9.119    1.790     0.004     0.005  1143.096  5.740E+10  5.561E+10
   4    0.087   10.275    0.522     0.009     6.847  1103.324  5.289E+10  5.270E+10
   5    0.103   11.658    2.244     0.020    41.079  1051.862  4.452E+10  5.095E+10
   6    0.121   13.258    0.956     0.048    36.690   983.136  3.674E+10  4.473E+10
   7    0.142   15.068    2.664     0.085    26.405   913.058  2.888E+10  3.827E+10
   8    0.165   17.075    1.350     0.132    18.396   866.194  2.228E+10  3.354E+10
   9    0.191   19.267    3.034     0.166    12.872   815.577  1.728E+10  2.995E+10
  10    0.218   21.633    1.698     0.178     9.604   749.548  1.340E+10  2.612E+10
  11    0.247   24.156    3.348     0.190     7.529   687.172  1.065E+10  2.268E+10
  12    0.278   26.823    1.986     0.205     6.333   635.941  8.553E+09  1.942E+10
  13    0.310   29.617    3.602     0.214     4.793   589.990  6.670E+09  1.846E+10
  14    0.344   32.521    2.206     0.220     4.264   566.965  5.432E+09  1.657E+10
  15    0.379   35.519    3.790     0.223     3.984   535.504  4.430E+09  1.401E+10
  16    0.414   38.591    2.354     0.224     3.511   503.075  3.587E+09  1.199E+10
  17    0.450   41.720    3.904     0.225     3.032   472.740  2.858E+09  1.016E+10
  18    0.487   44.886    2.428     0.224     2.613   439.225  2.253E+09  8.379E+09
  19    0.524   48.072    3.944     0.223     2.260   401.390  1.757E+09  6.645E+09
  20    0.561   51.257    2.426     0.223     1.890   368.977  1.375E+09  5.431E+09
  21    0.597   54.423    3.906     0.222     1.610   333.692  1.070E+09  4.234E+09
  22    0.634   57.550    2.348     0.222     1.364   302.193  8.360E+08  3.327E+09
  23    0.669   60.620    3.792     0.220     1.171   269.169  6.493E+08  2.543E+09
  24    0.704   63.615    2.198     0.220     1.006   238.847  5.039E+08  1.942E+09
  25    0.737   66.516    3.604     0.217     0.887   209.515  3.858E+08  1.487E+09
  26    0.770   69.306    1.976     0.216     0.769   182.641  2.909E+08  1.134E+09
  27    0.801   71.968    3.348     0.214     0.685   157.592  2.180E+08  8.542E+08
  28    0.830   74.487    1.690     0.213     0.638   136.352  1.633E+08  6.542E+08
  29    0.857   76.847    3.030     0.210     0.581   114.811  1.199E+08  4.962E+08
  30    0.882   79.034    1.344     0.208     0.543    96.624  8.654E+07  3.697E+08
  31    0.905   81.034    2.656     0.203     0.570    81.998  6.261E+07  2.941E+08
  32    0.926   82.837    0.950     0.202     0.553    67.324  4.317E+07  2.128E+08
  33    0.945   84.431    2.238     0.199     0.591    54.301  2.817E+07  1.543E+08
  34    0.961   85.806    0.512     0.197     0.669    43.544  1.738E+07  1.118E+08
  35    0.974   86.955    1.786     0.196     0.735    33.690  9.982E+06  7.394E+07
  36    0.985   87.870    0.044     0.196     0.788    25.515  4.698E+06  4.290E+07
  37    0.992   88.546    1.308     0.206     0.874    20.363  2.779E+06  2.736E+07


Interpolated blade 2 properties:

Node  BlFract   RNodes  DRNodes PitchAxis  StrcTwst  BMassDen    FlpStff    EdgStff
 (-)      (-)      (m)      (m)       (-)     (deg)    (kg/m)     (Nm^2)     (Nm^2)
   1    0.023    4.800    4.000     0.000     0.000  1191.584  6.217E+10  6.112E+10
   2    0.055    7.512    1.424     0.001     0.000  1185.261  6.140E+10  5.942E+10
   3    0.073    9.119    1.790     0.004     0.005  1143.096  5.740E+10  5.561E+10
   4    0.087   10.275    0.522     0.009     6.847  1103.324  5.289E+10  5.270E+10
   5    0.103   11.658    2.244     0.020    41.079  1051.862  4.452E+10  5.095E+10
   6    0.121   13.258    0.956     0.048    36.690   983.136  3.674E+10  4.473E+10
   7    0.142   15.068    2.664     0.085    26.405   913.058  2.888E+10  3.827E+10
   8    0.165   17.075    1.350     0.132    18.396   866.194  2.228E+10  3.354E+10
   9    0.191   19.267    3.034     0.166    12.872   815.577  1.728E+10  2.995E+10
  10    0.218   21.633    1.698     0.178     9.604   749.548  1.340E+10  2.612E+10
  11    0.247   24.156    3.348     0.190     7.529   687.172  1.065E+10  2.268E+10
  12    0.278   26.823    1.986     0.205     6.333   635.941  8.553E+09  1.942E+10
  13    0.310   29.617    3.602     0.214     4.793   589.990  6.670E+09  1.846E+10
  14    0.344   32.521    2.206     0.220     4.264   566.965  5.432E+09  1.657E+10
  15    0.379   35.519    3.790     0.223     3.984   535.504  4.430E+09  1.401E+10
  16    0.414   38.591    2.354     0.224     3.511   503.075  3.587E+09  1.199E+10
  17    0.450   41.720    3.904     0.225     3.032   472.740  2.858E+09  1.016E+10
  18    0.487   44.886    2.428     0.224     2.613   439.225  2.253E+09  8.379E+09
  19    0.524   48.072    3.944     0.223     2.260   401.390  1.757E+09  6.645E+09
  20    0.561   51.257    2.426     0.223     1.890   368.977  1.375E+09  5.431E+09
  21    0.597   54.423    3.906     0.222     1.610   333.692  1.070E+09  4.234E+09
  22    0.634   57.550    2.348     0.222     1.364   302.193  8.360E+08  3.327E+09
  23    0.669   60.620    3.792     0.220     1.171   269.169  6.493E+08  2.543E+09
  24    0.704   63.615    2.198     0.220     1.006   238.847  5.039E+08  1.942E+09
  25    0.737   66.516    3.604     0.217     0.887   209.515  3.858E+08  1.487E+09
  26    0.770   69.306    1.976     0.216     0.769   182.641  2.909E+08  1.134E+09
  27    0.801   71.968    3.348     0.214     0.685   157.592  2.180E+08  8.542E+08
  28    0.830   74.487    1.690     0.213     0.638   136.352  1.633E+08  6.542E+08
  29    0.857   76.847    3.030     0.210     0.581   114.811  1.199E+08  4.962E+08
  30    0.882   79.034    1.344     0.208     0.543    96.624  8.654E+07  3.697E+08
  31    0.905   81.034    2.656     0.203     0.570    81.998  6.261E+07  2.941E+08
  32    0.926   82.837    0.950     0.202     0.553    67.324  4.317E+07  2.128E+08
  33    0.945   84.431    2.238     0.199     0.591    54.301  2.817E+07  1.543E+08
  34    0.961   85.806    0.512     0.197     0.669    43.544  1.738E+07  1.118E+08
  35    0.974   86.955    1.786     0.196     0.735    33.690  9.982E+06  7.394E+07
  36    0.985   87.870    0.044     0.196     0.788    25.515  4.698E+06  4.290E+07
  37    0.992   88.546    1.308     0.206     0.874    20.363  2.779E+06  2.736E+07


Interpolated blade 3 properties:

Node  BlFract   RNodes  DRNodes PitchAxis  StrcTwst  BMassDen    FlpStff    EdgStff
 (-)      (-)      (m)      (m)       (-)     (deg)    (kg/m)     (Nm^2)     (Nm^2)
   1    0.023    4.800    4.000     0.000     0.000  1191.584  6.217E+10  6.112E+10
   2    0.055    7.512    1.424     0.001     0.000  1185.261  6.140E+10  5.942E+10
   3    0.073    9.119    1.790     0.004     0.005  1143.096  5.740E+10  5.561E+10
   4    0.087   10.275    0.522     0.009     6.847  1103.324  5.289E+10  5.270E+10
   5    0.103   11.658    2.244     0.020    41.079  1051.862  4.452E+10  5.095E+10
   6    0.121   13.258    0.956     0.048    36.690   983.136  3.674E+10  4.473E+10
   7    0.142   15.068    2.664     0.085    26.405   913.058  2.888E+10  3.827E+10
   8    0.165   17.075    1.350     0.132    18.396   866.194  2.228E+10  3.354E+10
   9    0.191   19.267    3.034     0.166    12.872   815.577  1.728E+10  2.995E+10
  10    0.218   21.633    1.698     0.178     9.604   749.548  1.340E+10  2.612E+10
  11    0.247   24.156    3.348     0.190     7.529   687.172  1.065E+10  2.268E+10
  12    0.278   26.823    1.986     0.205     6.333   635.941  8.553E+09  1.942E+10
  13    0.310   29.617    3.602     0.214     4.793   589.990  6.670E+09  1.846E+10
  14    0.344   32.521    2.206     0.220     4.264   566.965  5.432E+09  1.657E+10
  15    0.379   35.519    3.790     0.223     3.984   535.504  4.430E+09  1.401E+10
  16    0.414   38.591    2.354     0.224     3.511   503.075  3.587E+09  1.199E+10
  17    0.450   41.720    3.904     0.225     3.032   472.740  2.858E+09  1.016E+10
  18    0.487   44.886    2.428     0.224     2.613   439.225  2.253E+09  8.379E+09
  19    0.524   48.072    3.944     0.223     2.260   401.390  1.757E+09  6.645E+09
  20    0.561   51.257    2.426     0.223     1.890   368.977  1.375E+09  5.431E+09
  21    0.597   54.423    3.906     0.222     1.610   333.692  1.070E+09  4.234E+09
  22    0.634   57.550    2.348     0.222     1.364   302.193  8.360E+08  3.327E+09
  23    0.669   60.620    3.792     0.220     1.171   269.169  6.493E+08  2.543E+09
  24    0.704   63.615    2.198     0.220     1.006   238.847  5.039E+08  1.942E+09
  25    0.737   66.516    3.604     0.217     0.887   209.515  3.858E+08  1.487E+09
  26    0.770   69.306    1.976     0.216     0.769   182.641  2.909E+08  1.134E+09
  27    0.801   71.968    3.348     0.214     0.685   157.592  2.180E+08  8.542E+08
  28    0.830   74.487    1.690     0.213     0.638   136.352  1.633E+08  6.542E+08
  29    0.857   76.847    3.030     0.210     0.581   114.811  1.199E+08  4.962E+08
  30    0.882   79.034    1.344     0.208     0.543    96.624  8.654E+07  3.697E+08
  31    0.905   81.034    2.656     0.203     0.570    81.998  6.261E+07  2.941E+08
  32    0.926   82.837    0.950     0.202     0.553    67.324  4.317E+07  2.128E+08
  33    0.945   84.431    2.238     0.199     0.591    54.301  2.817E+07  1.543E+08
  34    0.961   85.806    0.512     0.197     0.669    43.544  1.738E+07  1.118E+08
  35    0.974   86.955    1.786     0.196     0.735    33.690  9.982E+06  7.394E+07
  36    0.985   87.870    0.044     0.196     0.788    25.515  4.698E+06  4.290E+07
  37    0.992   88.546    1.308     0.206     0.874    20.363  2.779E+06  2.736E+07


Requested Outputs:


 Col   Parameter            Units               
 ---   ---------------      ---------------     
   0   Time                 (s)                 
   1   RotSpeed             (rpm)               
   2   GenSpeed             (rpm)               
   3   TTDspFA              (m)                 
   4   TTDspSS              (m)                 
   5   YawBrTAxp            (m/s^2)             
   6   BldPitch1            (deg)               
   7   BldPitch2            (deg)               
   8   BldPitch3            (deg)               
   9   Azimuth              (deg)               
  10   RootMyb1             (kN-m)              
  11   RootMyb2             (kN-m)              
  12   RootMyb3             (kN-m)              
  13   RootMyc1             (kN-m)              
  14   RootMyc2             (kN-m)              
  15   RootMyc3             (kN-m)              
  16   PtfmSurge            (m)                 
  17   PtfmSway             (m)                 
  18   PtfmHeave            (m)                 
  19   PtfmRoll             (deg)               
  20   PtfmPitch            (deg)               
  21   PtfmYaw              (deg)               
  22   PtfmRDxi             (deg)               
  23   PtfmRDyi             (deg)               
  24   PtfmRDzi             (deg)               
  25   PtfmTVxi             (m/s)               
  26   PtfmTVzi             (m/s)               
  27   PtfmRVxi             (deg/s)             
  28   PtfmRVyi             (deg/s)             
  29   PtfmRVzi             (deg/s)             
  30   TwrBsMyt             (kN-m)              
  31   LSShftTq             (kN-m)              
  32   RotThrust            (kN)                
  33   TipDxc1              (m)                 
  34   TipDyc1              (m)                 


  Requested Output Channels at each blade station:
 Col   Parameter            Units               
 ---   ---------------      ---------------     
